Circuit: * R:\repos\auxpis-bps\ltspice\schematics\proto.asc

Limiting rise time of source v2 to 5e-005
Limiting fall time of source v2 to 5e-005
Direct Newton iteration for .op point succeeded.
Heightened Def Con from 0.00960005 to 0.00960005
Heightened Def Con from 0.0166 +to 0.0166
Heightened Def Con from 0.0246 to 0.0246001
Heightened Def Con from 0.0266001 ++++to 0.0266001
Heightened Def Con from 0.0266001 ++to 0.0266001
Heightened Def Con from 0.0266001 +to 0.0266001
Heightened Def Con from 0.0266001 to 0.0266001
Heightened Def Con from 0.0296 +to 0.0296
Heightened Def Con from 0.0296 to 0.0296
Heightened Def Con from 0.0296 ++to 0.0296
Heightened Def Con from 0.0296 +to 0.0296
Heightened Def Con from 0.0296 +to 0.0296
Heightened Def Con from 0.0296001 to 0.0296001
Heightened Def Con from 0.0306 to 0.0306
Heightened Def Con from 0.0306 to 0.0306
Heightened Def Con from 0.0306 ++to 0.0306
Heightened Def Con from 0.0306 to 0.0306
Heightened Def Con from 0.0306 to 0.0306
Heightened Def Con from 0.0316 ++to 0.0316001
Heightened Def Con from 0.0316001 +++to 0.0316001
Heightened Def Con from 0.0316001 ++++++to 0.0316001
Heightened Def Con from 0.0316001 to 0.0316001
Heightened Def Con from 0.0326001 +++++to 0.0326001
Heightened Def Con from 0.0326001 to 0.0326001
Heightened Def Con from 0.0326001 to 0.0326001
Heightened Def Con from 0.0326001 +++++to 0.0326001
Heightened Def Con from 0.0326001 +to 0.0326001
Heightened Def Con from 0.0326001 +++to 0.0326001
Heightened Def Con from 0.0326001 to 0.0326001
Heightened Def Con from 0.0326001 to 0.0326001
Heightened Def Con from 0.0326001 to 0.0326001
Heightened Def Con from 0.0336 +++++to 0.0336
Heightened Def Con from 0.0346001 ++to 0.0346001
Heightened Def Con from 0.0346001 to 0.0346001
Heightened Def Con from 0.0346001 ++to 0.0346001
Heightened Def Con from 0.0346001 +++to 0.0346001
Heightened Def Con from 0.0346001 +to 0.0346001
Heightened Def Con from 0.0346001 to 0.0346001
Heightened Def Con from 0.0346001 +to 0.0346001
Heightened Def Con from 0.0346001 to 0.0346001
Heightened Def Con from 0.0346001 to 0.0346001
Heightened Def Con from 0.0346001 +to 0.0346001
Heightened Def Con from 0.0346001 +++to 0.0346001
Heightened Def Con from 0.0356 to 0.0356
Heightened Def Con from 0.0356 to 0.0356
Heightened Def Con from 0.0356 to 0.0356
Heightened Def Con from 0.0356 ++to 0.0356
Heightened Def Con from 0.0356 +to 0.0356001
Heightened Def Con from 0.0356001 ++to 0.0356001
Heightened Def Con from 0.0356001 to 0.0356001
Heightened Def Con from 0.0356001 to 0.0356001
Heightened Def Con from 0.0356001 to 0.0356001
Heightened Def Con from 0.0356001 +to 0.0356001
Heightened Def Con from 0.0356001 to 0.0356001
Heightened Def Con from 0.0356001 to 0.0356001
Heightened Def Con from 0.0356001 to 0.0356001
Heightened Def Con from 0.0356001 ++to 0.0356001
Heightened Def Con from 0.0356001 +to 0.0356001
Heightened Def Con from 0.0356001 +to 0.0356001
Heightened Def Con from 0.0356001 +++++++to 0.0356001
Heightened Def Con from 0.0356001 +++to 0.0356001
Heightened Def Con from 0.0356001 to 0.0356001
Heightened Def Con from 0.0356001 +to 0.0356001
Heightened Def Con from 0.0356001 +to 0.0356001
Heightened Def Con from 0.0356001 ++++++++++to 0.0356001
Heightened Def Con from 0.0366 +to 0.0366
Heightened Def Con from 0.0366 ++to 0.0366
Heightened Def Con from 0.0366 to 0.0366
Heightened Def Con from 0.0366 +to 0.0366
Heightened Def Con from 0.0366 +to 0.0366
Heightened Def Con from 0.0376 ++to 0.0376
Heightened Def Con from 0.0376 to 0.0376
Heightened Def Con from 0.0376 ++++++++++++to 0.0376001
Heightened Def Con from 0.0376001 to 0.0376001
Heightened Def Con from 0.0376001 ++++++++++to 0.0376001
Heightened Def Con from 0.0376001 ++++to 0.0376001
Heightened Def Con from 0.0376001 to 0.0376001
Heightened Def Con from 0.0376001 to 0.0376001
Heightened Def Con from 0.0376001 ++to 0.0376001
Heightened Def Con from 0.0376001 ++++++to 0.0376001
Heightened Def Con from 0.0386 +++++++++to 0.0386
Heightened Def Con from 0.0386 +++++++++++++to 0.0386001
Heightened Def Con from 0.0386001 +++++++++++to 0.0386001
Heightened Def Con from 0.0386001 +++++++++++to 0.0386001
Heightened Def Con from 0.0386001 ++to 0.0386001
Heightened Def Con from 0.0386001 +++++++++++++to 0.0386001
Heightened Def Con from 0.0386001 ++++++++to 0.0386001
Heightened Def Con from 0.0386001 +++++++++to 0.0386001
Heightened Def Con from 0.0386001 to 0.0386001
Heightened Def Con from 0.0386001 ++++++to 0.0386001
Heightened Def Con from 0.0386001 ++to 0.0386001
Heightened Def Con from 0.0386001 ++++++++to 0.0386001
Heightened Def Con from 0.0386001 to 0.0386001
Heightened Def Con from 0.0386001 +++++++to 0.0386001
Heightened Def Con from 0.0386001 to 0.0386001
Heightened Def Con from 0.0386001 +++++++to 0.0386001
Heightened Def Con from 0.0386001 +++++++to 0.0386001
Heightened Def Con from 0.0386001 ++++++++to 0.0386001
Heightened Def Con from 0.0386001 ++++to 0.0386001
Heightened Def Con from 0.0396 to 0.0396
Heightened Def Con from 0.0396 to 0.0396
Heightened Def Con from 0.0396 +++++++++to 0.0396
Heightened Def Con from 0.0396001 +to 0.0396001
Heightened Def Con from 0.0396001 to 0.0396001
Heightened Def Con from 0.0396001 ++++++++to 0.0396001
Heightened Def Con from 0.0396001 +++++++++++++to 0.0396001
Heightened Def Con from 0.0396001 ++++++++++to 0.0396001
Heightened Def Con from 0.0396001 to 0.0396001
Heightened Def Con from 0.0396001 +to 0.0396001
Heightened Def Con from 0.0406 +++++++++to 0.0406
Heightened Def Con from 0.0406 +to 0.0406
Heightened Def Con from 0.0406 ++++++++++to 0.0406001
Heightened Def Con from 0.0406001 ++to 0.0406001
Heightened Def Con from 0.0406001 +++to 0.0406001
Heightened Def Con from 0.0406001 +to 0.0406001
Heightened Def Con from 0.0406001 to 0.0406001
Heightened Def Con from 0.0406001 +to 0.0406001
Heightened Def Con from 0.0406001 +++to 0.0406001
Heightened Def Con from 0.0406001 to 0.0406001
Heightened Def Con from 0.0406001 to 0.0406001
Heightened Def Con from 0.0416 to 0.0416
Heightened Def Con from 0.0416001 +to 0.0416001
Heightened Def Con from 0.0416001 ++to 0.0416001
Heightened Def Con from 0.0416001 +++++++++++to 0.0416001
Heightened Def Con from 0.0416001 +++++++++++to 0.0416001
Heightened Def Con from 0.0416001 +to 0.0416001
Heightened Def Con from 0.0416001 ++to 0.0416001
Heightened Def Con from 0.0416001 ++++++++to 0.0416001
Heightened Def Con from 0.0426 to 0.0426
Heightened Def Con from 0.0426 +++to 0.0426
Heightened Def Con from 0.0426 +++++++++to 0.0426
Heightened Def Con from 0.0426 +to 0.0426
Heightened Def Con from 0.0426 +++++++++++++to 0.0426001
Heightened Def Con from 0.0426001 +++++++to 0.0426001
Heightened Def Con from 0.0426001 ++++++++++++to 0.0426001
Heightened Def Con from 0.0426001 ++++++++++++to 0.0426001
Heightened Def Con from 0.0426001 ++++++++++++to 0.0426001
Heightened Def Con from 0.0426001 +++++++++++++to 0.0426001
Heightened Def Con from 0.0426001 ++++++to 0.0426001
Heightened Def Con from 0.0426001 +++++++++to 0.0426001
Heightened Def Con from 0.0426001 ++++to 0.0426001
Heightened Def Con from 0.0426001 +++++++++++to 0.0426001
Heightened Def Con from 0.0426001 to 0.0426001
Heightened Def Con from 0.0426001 ++++++++++++to 0.0426001
Heightened Def Con from 0.0426001 +to 0.0426001
Heightened Def Con from 0.0426001 ++++++++++to 0.0426001
Heightened Def Con from 0.0426001 +++++++++to 0.0426001
Heightened Def Con from 0.0426001 to 0.0426001
Heightened Def Con from 0.0426001 ++++to 0.0426001
Heightened Def Con from 0.0426001 +++++++++to 0.0426001
Heightened Def Con from 0.0426001 ++++to 0.0426001
Heightened Def Con from 0.0426001 ++to 0.0426001
Heightened Def Con from 0.0426001 to 0.0426001
Heightened Def Con from 0.0436 +++++to 0.0436
Heightened Def Con from 0.0436 +++++++++++++to 0.0436001
Heightened Def Con from 0.0436001 ++++++++++++to 0.0436001
Heightened Def Con from 0.0436001 +++++++++++++to 0.0436001
Heightened Def Con from 0.0436001 ++++to 0.0436001
Heightened Def Con from 0.0436001 ++++++++++++to 0.0436001
Heightened Def Con from 0.0436001 ++++++++++++to 0.0436001
Heightened Def Con from 0.0436001 +++++++++++to 0.0436001
Heightened Def Con from 0.0436001 +++++++++++to 0.0436001
Heightened Def Con from 0.0436001 ++++++++to 0.0436001
Heightened Def Con from 0.0436001 +++++++++++++to 0.0436001
Heightened Def Con from 0.0436001 ++++++to 0.0436001
Heightened Def Con from 0.0436001 +to 0.0436001
Heightened Def Con from 0.0436001 +++to 0.0436001
Heightened Def Con from 0.0436001 +to 0.0436001
Heightened Def Con from 0.0436001 to 0.0436001
Heightened Def Con from 0.0436001 +to 0.0436001
Heightened Def Con from 0.0436001 +to 0.0436001
Heightened Def Con from 0.0436001 +++++++++++++to 0.0436001
Heightened Def Con from 0.0436001 ++++to 0.0436001
Heightened Def Con from 0.0436001 +to 0.0436001
Heightened Def Con from 0.0436001 ++++++++++++to 0.0436001
Heightened Def Con from 0.0436001 +++++++++++++to 0.0436001
Heightened Def Con from 0.0436001 +++++to 0.0436001
Heightened Def Con from 0.0436001 +to 0.0436001
Heightened Def Con from 0.0436001 +++to 0.0436001
Heightened Def Con from 0.0436001 ++to 0.0436001
Heightened Def Con from 0.0446 +++to 0.0446
Heightened Def Con from 0.0446 ++++++to 0.0446
Heightened Def Con from 0.0446 +++++++++++++to 0.0446
Heightened Def Con from 0.0446 ++++++++++++to 0.0446001
Heightened Def Con from 0.0446001 ++++++++++to 0.0446001
Heightened Def Con from 0.0446001 ++++++to 0.0446001
Heightened Def Con from 0.0446001 ++++++++++++to 0.0446001
Heightened Def Con from 0.0446001 +++++++++++++to 0.0446001
Heightened Def Con from 0.0446001 ++++++++++++to 0.0446001
Heightened Def Con from 0.0446001 +++++++++++to 0.0446001
Heightened Def Con from 0.0446001 to 0.0446001
Heightened Def Con from 0.0446001 to 0.0446001
Heightened Def Con from 0.0446001 +++++++++++to 0.0446001
Heightened Def Con from 0.0446001 +++++++++++++to 0.0446001
Heightened Def Con from 0.0446001 ++++++++++to 0.0446001
Heightened Def Con from 0.0446001 +++++++++++++to 0.0446001
Heightened Def Con from 0.0446001 ++++++to 0.0446001
Heightened Def Con from 0.0446001 ++++to 0.0446001
Heightened Def Con from 0.0446001 +to 0.0446001
Heightened Def Con from 0.0446001 +++++++++++to 0.0446001
Heightened Def Con from 0.0446001 +++++++to 0.0446001
Heightened Def Con from 0.0446001 +++++to 0.0446001
Heightened Def Con from 0.0446001 +++to 0.0446001
Heightened Def Con from 0.0446001 ++++++to 0.0446001
Heightened Def Con from 0.0446001 +++++to 0.0446001
Heightened Def Con from 0.0446001 ++to 0.0446001
Heightened Def Con from 0.0446001 +++to 0.0446001
Heightened Def Con from 0.0446001 ++to 0.0446001
Heightened Def Con from 0.0446001 +++++to 0.0446001
Heightened Def Con from 0.0446001 to 0.0446001
Heightened Def Con from 0.0446001 ++to 0.0446001
Heightened Def Con from 0.0446001 +++++to 0.0446001
Heightened Def Con from 0.0446001 +++++++++++to 0.0446001
Heightened Def Con from 0.0446001 ++++++++++to 0.0446001
Heightened Def Con from 0.0446001 ++to 0.0446001
Heightened Def Con from 0.0446001 ++to 0.0446001
Heightened Def Con from 0.0446001 ++++++to 0.0446001
Heightened Def Con from 0.0446001 +++++++to 0.0446001
Heightened Def Con from 0.0446001 +to 0.0446001
Heightened Def Con from 0.0446001 ++++++++++to 0.0446001
Heightened Def Con from 0.0446001 ++++++++++++++to 0.0446001
Heightened Def Con from 0.0446001 +++to 0.0446001
Heightened Def Con from 0.0446001 to 0.0446001
Heightened Def Con from 0.0446001 +++++++to 0.0446001
Heightened Def Con from 0.0446001 +++++to 0.0446001
Heightened Def Con from 0.0446001 ++to 0.0446001
Heightened Def Con from 0.0446001 +++++to 0.0446001
Heightened Def Con from 0.0446001 to 0.0446001
Heightened Def Con from 0.0446001 ++++++++to 0.0446001
Heightened Def Con from 0.0446001 ++++++++++to 0.0446001
Heightened Def Con from 0.0446001 +to 0.0446001
Heightened Def Con from 0.0446001 +to 0.0446001
Heightened Def Con from 0.0446001 ++++++++++to 0.0446001
Heightened Def Con from 0.0446001 to 0.0446001
Heightened Def Con from 0.0446001 ++to 0.0446001
Heightened Def Con from 0.0446001 +to 0.0446001
Heightened Def Con from 0.0446002 ++++++++++++to 0.0446002
Heightened Def Con from 0.0446002 ++++++++++++to 0.0446002
Heightened Def Con from 0.0446002 +++to 0.0446002
Heightened Def Con from 0.0446002 to 0.0446002
Heightened Def Con from 0.0446002 +to 0.0446002
Heightened Def Con from 0.0446002 ++++++++++to 0.0446002
Heightened Def Con from 0.0446002 to 0.0446002
Heightened Def Con from 0.0446002 ++++++++++++to 0.0446002
Heightened Def Con from 0.0446002 to 0.0446002
Heightened Def Con from 0.0446002 ++++++to 0.0446002
Heightened Def Con from 0.0446002 +++to 0.0446002
Heightened Def Con from 0.0446002 +to 0.0446002
Heightened Def Con from 0.0446002 +++++++to 0.0446002
Heightened Def Con from 0.0446002 ++++++to 0.0446002
Heightened Def Con from 0.0446002 ++to 0.0446002
Heightened Def Con from 0.0446002 +++++++to 0.0446002
Heightened Def Con from 0.0446002 to 0.0446002
Heightened Def Con from 0.0446002 ++++++++++to 0.0446002
Heightened Def Con from 0.0446002 +++++++++to 0.0446002
Heightened Def Con from 0.0446002 +++++++++++++to 0.0446002
Heightened Def Con from 0.0446002 +++to 0.0446002
Heightened Def Con from 0.0446002 ++++to 0.0446002
Heightened Def Con from 0.0446002 +++++++++++to 0.0446002
Heightened Def Con from 0.0446002 +++to 0.0446002
Heightened Def Con from 0.0446002 +++++++to 0.0446002
Heightened Def Con from 0.0446002 to 0.0446002
Heightened Def Con from 0.0446002 ++++++++to 0.0446002
Heightened Def Con from 0.0446002 ++to 0.0446002
Heightened Def Con from 0.0446002 +++++to 0.0446002
Heightened Def Con from 0.0446002 ++++++to 0.0446002
Heightened Def Con from 0.0446002 to 0.0446002
Heightened Def Con from 0.0446002 +++++++++to 0.0446002
Heightened Def Con from 0.0446002 +++to 0.0446002
Heightened Def Con from 0.0446002 to 0.0446002
Heightened Def Con from 0.0446002 +++++to 0.0446002
Heightened Def Con from 0.0446002 +++++to 0.0446002
Heightened Def Con from 0.0446002 +++++to 0.0446002
Heightened Def Con from 0.0446002 +++++++++++to 0.0446002
Heightened Def Con from 0.0446002 +++++++++to 0.0446002
Heightened Def Con from 0.0446002 +++++to 0.0446002
Heightened Def Con from 0.0446002 +++++++++++++to 0.0446002
Heightened Def Con from 0.0446002 +to 0.0446002
Heightened Def Con from 0.0446002 ++++++++++to 0.0446002
Heightened Def Con from 0.0446002 ++to 0.0446002
Heightened Def Con from 0.0446002 +++++++to 0.0446002
Heightened Def Con from 0.0446002 ++to 0.0446002
Heightened Def Con from 0.0446002 ++++++to 0.0446002
Heightened Def Con from 0.0446002 to 0.0446002
Heightened Def Con from 0.0446002 ++++++++++to 0.0446002
Heightened Def Con from 0.0446002 +++to 0.0446002
Heightened Def Con from 0.0446002 ++++++to 0.0446002
Heightened Def Con from 0.0446002 to 0.0446002
Heightened Def Con from 0.0446002 +++++++to 0.0446002
Heightened Def Con from 0.0446002 +++++++++++to 0.0446002
Heightened Def Con from 0.0446002 ++++++to 0.0446002
Heightened Def Con from 0.0446002 ++to 0.0446002
Heightened Def Con from 0.0446002 +++++++++to 0.0446002
Heightened Def Con from 0.0446002 to 0.0446002
Heightened Def Con from 0.0446002 ++++++++++++to 0.0446002
Heightened Def Con from 0.0446002 to 0.0446002
Heightened Def Con from 0.0446002 +to 0.0446002
Heightened Def Con from 0.0446002 +to 0.0446002
Heightened Def Con from 0.0446002 +++++++++++to 0.0446002
Heightened Def Con from 0.0446002 to 0.0446002
Heightened Def Con from 0.0446002 ++++to 0.0446002
Heightened Def Con from 0.0446002 ++++to 0.0446002
Heightened Def Con from 0.0446002 to 0.0446002
Heightened Def Con from 0.0446002 ++++++++to 0.0446002
Heightened Def Con from 0.0446002 ++to 0.0446002
Heightened Def Con from 0.0446002 ++to 0.0446002
Heightened Def Con from 0.0446002 ++++++to 0.0446002
Heightened Def Con from 0.0446002 ++to 0.0446002
Heightened Def Con from 0.0446002 +++to 0.0446002
Heightened Def Con from 0.0446002 ++++++++++++to 0.0446002
Heightened Def Con from 0.0446002 ++++++++++to 0.0446003
Heightened Def Con from 0.0446003 to 0.0446003
Heightened Def Con from 0.0446003 +++++to 0.0446003
Heightened Def Con from 0.0446003 +++++++++++to 0.0446003
Heightened Def Con from 0.0446003 ++++to 0.0446003
Heightened Def Con from 0.0446003 +to 0.0446003
Heightened Def Con from 0.0446003 +++++++++to 0.0446003
Heightened Def Con from 0.0446003 +++++++++++to 0.0446003
Heightened Def Con from 0.0446003 +++++++to 0.0446003
Heightened Def Con from 0.0446003 ++++++++++to 0.0446003
Heightened Def Con from 0.0446003 ++to 0.0446003
Heightened Def Con from 0.0446003 to 0.0446003
Heightened Def Con from 0.0446003 +++++++++++to 0.0446003
Heightened Def Con from 0.0446003 to 0.0446003
Heightened Def Con from 0.0446003 ++++++to 0.0446003
Heightened Def Con from 0.0446003 ++++to 0.0446003
Heightened Def Con from 0.0446003 +to 0.0446003
Heightened Def Con from 0.0446003 +++++++++to 0.0446003
Heightened Def Con from 0.0446003 +++++++++++++to 0.0446003
Heightened Def Con from 0.0446003 ++++++to 0.0446003
Heightened Def Con from 0.0446003 +++++to 0.0446003
Heightened Def Con from 0.0446003 +++++++to 0.0446003
Heightened Def Con from 0.0446003 ++++++to 0.0446003
Heightened Def Con from 0.0446003 +++++++++++++to 0.0446003
Heightened Def Con from 0.0446003 to 0.0446003
Heightened Def Con from 0.0446003 ++to 0.0446003
Heightened Def Con from 0.0446003 +++++++++++++to 0.0446003
Heightened Def Con from 0.0446003 ++++++++++++to 0.0446003
Heightened Def Con from 0.0446003 to 0.0446003
Heightened Def Con from 0.0446003 ++to 0.0446003
Heightened Def Con from 0.0446003 ++++++++++++to 0.0446003
Heightened Def Con from 0.0446003 +++to 0.0446003
Heightened Def Con from 0.0446003 ++++++++to 0.0446003
Heightened Def Con from 0.0446003 to 0.0446003
Heightened Def Con from 0.0446003 +to 0.0446003
Heightened Def Con from 0.0446003 ++++++++++to 0.0446003
Heightened Def Con from 0.0446003 ++++++++++to 0.0446003
Heightened Def Con from 0.0446003 +++++++++to 0.0446003
Heightened Def Con from 0.0446003 +++++++++++to 0.0446003
Heightened Def Con from 0.0446003 +to 0.0446003
Heightened Def Con from 0.0446003 to 0.0446003
Heightened Def Con from 0.0446003 ++++++++to 0.0446003
Heightened Def Con from 0.0446003 +++++++to 0.0446003
Heightened Def Con from 0.0446003 ++++++++++++to 0.0446003
Heightened Def Con from 0.0446003 +++++++++++to 0.0446003
Heightened Def Con from 0.0446003 ++++++++++++++to 0.0446003
Heightened Def Con from 0.0446003 to 0.0446003
Heightened Def Con from 0.0446003 +++++++to 0.0446003
Heightened Def Con from 0.0446003 ++++to 0.0446003
Heightened Def Con from 0.0446003 ++++++++++++to 0.0446003
Heightened Def Con from 0.0446003 ++to 0.0446003
Heightened Def Con from 0.0446003 +++to 0.0446003
Heightened Def Con from 0.0446003 to 0.0446003
Heightened Def Con from 0.0446003 +to 0.0446003
Heightened Def Con from 0.0446003 to 0.0446003
Heightened Def Con from 0.0446003 +++++++++++++to 0.0446003
Heightened Def Con from 0.0446003 ++to 0.0446003
Heightened Def Con from 0.0446003 ++++++to 0.0446003
Heightened Def Con from 0.0446003 +++++++++++++to 0.0446003
Heightened Def Con from 0.0446003 +++++++to 0.0446003
Heightened Def Con from 0.0446003 +to 0.0446003
Heightened Def Con from 0.0446003 +++++++++to 0.0446003
Heightened Def Con from 0.0446003 +++++++++++to 0.0446003
Heightened Def Con from 0.0446003 +++to 0.0446003
Heightened Def Con from 0.0446003 ++++to 0.0446003
Heightened Def Con from 0.0446003 +++to 0.0446003
Heightened Def Con from 0.0446003 +++++++to 0.0446004
Heightened Def Con from 0.0446004 ++to 0.0446004
Heightened Def Con from 0.0446004 ++++++to 0.0446004
Heightened Def Con from 0.0446004 +++++++to 0.0446004
Heightened Def Con from 0.0446004 to 0.0446004
Heightened Def Con from 0.0446004 +to 0.0446004
Heightened Def Con from 0.0446004 ++++to 0.0446004
Heightened Def Con from 0.0446004 ++++++++++to 0.0446004
Heightened Def Con from 0.0446004 ++++++to 0.0446004
Heightened Def Con from 0.0446004 +to 0.0446004
Heightened Def Con from 0.0446004 ++++to 0.0446004
Heightened Def Con from 0.0446004 +++++to 0.0446004
Heightened Def Con from 0.0446004 +to 0.0446004
Heightened Def Con from 0.0446004 to 0.0446004
Heightened Def Con from 0.0446004 to 0.0446004
Heightened Def Con from 0.0456 ++++++++++++++to 0.0456
Heightened Def Con from 0.0456 ++++++++++to 0.0456
Heightened Def Con from 0.0456 +++++++++++to 0.0456001
Heightened Def Con from 0.0456001 ++++++++++++to 0.0456001
Heightened Def Con from 0.0456001 ++++++++++++to 0.0456001
Heightened Def Con from 0.0456001 +++++++++++++to 0.0456001
Heightened Def Con from 0.0456001 +++++++++++++to 0.0456001
Heightened Def Con from 0.0456001 ++to 0.0456001
Heightened Def Con from 0.0456001 +++++to 0.0456001
Heightened Def Con from 0.0456001 ++++++++++++to 0.0456001
Heightened Def Con from 0.0456001 ++to 0.0456001
Heightened Def Con from 0.0456001 +++++++++to 0.0456001
Heightened Def Con from 0.0456001 to 0.0456001
Heightened Def Con from 0.0456001 ++++to 0.0456001
Heightened Def Con from 0.0456001 +++++++to 0.0456001
Heightened Def Con from 0.0456001 +++++to 0.0456001
Heightened Def Con from 0.0456001 ++to 0.0456001
Heightened Def Con from 0.0456001 ++++to 0.0456001
Heightened Def Con from 0.0456001 to 0.0456001
Heightened Def Con from 0.0456001 +++++to 0.0456001
Heightened Def Con from 0.0456001 to 0.0456001
Heightened Def Con from 0.0456001 ++++++to 0.0456001
Heightened Def Con from 0.0456001 ++++to 0.0456001
Heightened Def Con from 0.0456001 to 0.0456001
Heightened Def Con from 0.0456001 to 0.0456001
Heightened Def Con from 0.0456001 +++++++++++++to 0.0456001
Heightened Def Con from 0.0456001 ++++to 0.0456001
Heightened Def Con from 0.0456001 +++++to 0.0456001
Heightened Def Con from 0.0456001 ++++++to 0.0456001
Heightened Def Con from 0.0456001 ++to 0.0456001
Heightened Def Con from 0.0456001 +++to 0.0456001
Heightened Def Con from 0.0456001 +++++to 0.0456001
Heightened Def Con from 0.0456001 ++++++++++to 0.0456001
Heightened Def Con from 0.0456001 ++to 0.0456001
Heightened Def Con from 0.0456001 +to 0.0456001
Heightened Def Con from 0.0456001 ++++++++++to 0.0456001
Heightened Def Con from 0.0456001 ++to 0.0456001
Heightened Def Con from 0.0456001 ++to 0.0456001
Heightened Def Con from 0.0456001 to 0.0456001
Heightened Def Con from 0.0456001 +++to 0.0456001
Heightened Def Con from 0.0456001 ++++to 0.0456001
Heightened Def Con from 0.0456001 ++++++++to 0.0456001
Heightened Def Con from 0.0456001 +++++++++to 0.0456001
Heightened Def Con from 0.0456001 ++++to 0.0456001
Heightened Def Con from 0.0456001 +++++++++++to 0.0456001
Heightened Def Con from 0.0456001 ++to 0.0456001
Heightened Def Con from 0.0456001 to 0.0456001
Heightened Def Con from 0.0456001 ++++++++++to 0.0456001
Heightened Def Con from 0.0456001 +++++to 0.0456001
Heightened Def Con from 0.0456001 ++++++++to 0.0456001
Heightened Def Con from 0.0456001 ++to 0.0456001
Heightened Def Con from 0.0456001 ++to 0.0456001
Heightened Def Con from 0.0456001 +++++to 0.0456001
Heightened Def Con from 0.0456001 +++++++to 0.0456001
Heightened Def Con from 0.0456001 ++++++++to 0.0456001
Heightened Def Con from 0.0456001 +++++++to 0.0456001
Heightened Def Con from 0.0456001 ++to 0.0456001
Heightened Def Con from 0.0456001 +++to 0.0456001
Heightened Def Con from 0.0456001 to 0.0456001
Heightened Def Con from 0.0456001 ++++to 0.0456001
Heightened Def Con from 0.0456001 +++to 0.0456001
Heightened Def Con from 0.0456001 to 0.0456001
Heightened Def Con from 0.0456001 ++++++to 0.0456001
Heightened Def Con from 0.0456001 +to 0.0456001
Heightened Def Con from 0.0456001 ++++to 0.0456001
Heightened Def Con from 0.0456001 ++to 0.0456001
Heightened Def Con from 0.0456001 +++++++++++++to 0.0456001
Heightened Def Con from 0.0456001 +++++to 0.0456001
Heightened Def Con from 0.0456001 +++++to 0.0456001
Heightened Def Con from 0.0456001 ++++++++++++to 0.0456002
Heightened Def Con from 0.0456002 to 0.0456002
Heightened Def Con from 0.0456002 +to 0.0456002
Heightened Def Con from 0.0456002 +++to 0.0456002
Heightened Def Con from 0.0456002 ++++to 0.0456002
Heightened Def Con from 0.0456002 to 0.0456002
Heightened Def Con from 0.0456002 +++++++++++to 0.0456002
Heightened Def Con from 0.0456002 +to 0.0456002
Heightened Def Con from 0.0456002 +to 0.0456002
Heightened Def Con from 0.0456002 ++++++++to 0.0456002
Heightened Def Con from 0.0456002 ++++to 0.0456002
Heightened Def Con from 0.0456002 ++to 0.0456002
Heightened Def Con from 0.0456002 +to 0.0456002
Heightened Def Con from 0.0456002 ++++++to 0.0456002
Heightened Def Con from 0.0456002 to 0.0456002
Heightened Def Con from 0.0456002 +to 0.0456002
Heightened Def Con from 0.0456002 ++++++to 0.0456002
Heightened Def Con from 0.0456002 to 0.0456002
Heightened Def Con from 0.0456002 +++to 0.0456002
Heightened Def Con from 0.0456002 +++++++to 0.0456002
Heightened Def Con from 0.0456002 +++++++to 0.0456002
Heightened Def Con from 0.0456002 +++++to 0.0456002
Heightened Def Con from 0.0456002 +++++to 0.0456002
Heightened Def Con from 0.0456002 +++++++++++to 0.0456002
Heightened Def Con from 0.0456002 +++++++++++to 0.0456002
Heightened Def Con from 0.0456002 +++++++++++to 0.0456002
Heightened Def Con from 0.0456002 ++++to 0.0456002
Heightened Def Con from 0.0456002 ++++++++++++to 0.0456002
Heightened Def Con from 0.0456002 to 0.0456002
Heightened Def Con from 0.0456002 ++++to 0.0456002
Heightened Def Con from 0.0456002 to 0.0456002
Heightened Def Con from 0.0456002 ++++++++++to 0.0456002
Heightened Def Con from 0.0456002 +++to 0.0456002
Heightened Def Con from 0.0456002 ++++++++++++to 0.0456002
Heightened Def Con from 0.0456002 ++++++++++++to 0.0456002
Heightened Def Con from 0.0456002 +++to 0.0456002
Heightened Def Con from 0.0456002 +++to 0.0456002
Heightened Def Con from 0.0456002 ++++++to 0.0456002
Heightened Def Con from 0.0456002 to 0.0456002
Heightened Def Con from 0.0456002 +++++++++++to 0.0456002
Heightened Def Con from 0.0456002 +++++++to 0.0456002
Heightened Def Con from 0.0456002 to 0.0456002
Heightened Def Con from 0.0456002 ++++++++++++to 0.0456002
Heightened Def Con from 0.0456002 +++++to 0.0456002
Heightened Def Con from 0.0456002 ++to 0.0456002
Heightened Def Con from 0.0456002 +++++++++to 0.0456002
Heightened Def Con from 0.0456002 ++++++++++++to 0.0456002
Heightened Def Con from 0.0456002 +++++++++to 0.0456002
Heightened Def Con from 0.0456002 +to 0.0456002
Heightened Def Con from 0.0456002 +++to 0.0456002
Heightened Def Con from 0.0456002 to 0.0456002
Heightened Def Con from 0.0456002 to 0.0456002
Heightened Def Con from 0.0456002 +++++++++to 0.0456002
Heightened Def Con from 0.0456002 +++++++to 0.0456002
Heightened Def Con from 0.0456002 +++++to 0.0456002
Heightened Def Con from 0.0456002 +to 0.0456002
Heightened Def Con from 0.0456002 +++++++to 0.0456002
Heightened Def Con from 0.0456002 +++to 0.0456002
Heightened Def Con from 0.0456002 +++++++to 0.0456002
Heightened Def Con from 0.0456002 to 0.0456002
Heightened Def Con from 0.0456002 +++++++++++to 0.0456002
Heightened Def Con from 0.0456002 +++++to 0.0456002
Heightened Def Con from 0.0456002 +++++++++to 0.0456002
Heightened Def Con from 0.0456002 ++to 0.0456002
Heightened Def Con from 0.0456002 ++++++++to 0.0456002
Heightened Def Con from 0.0456002 ++++++++++++to 0.0456002
Heightened Def Con from 0.0456002 ++++to 0.0456002
Heightened Def Con from 0.0456002 +++++++++++++to 0.0456002
Heightened Def Con from 0.0456002 +++++++++++to 0.0456002
Heightened Def Con from 0.0456002 +to 0.0456002
Heightened Def Con from 0.0456002 ++++++++++++to 0.0456002
Heightened Def Con from 0.0456002 to 0.0456002
Heightened Def Con from 0.0456002 +++++++++to 0.0456002
Heightened Def Con from 0.0456002 ++++to 0.0456002
Heightened Def Con from 0.0456002 +++++++++++++to 0.0456002
Heightened Def Con from 0.0456002 +++++++to 0.0456002
Heightened Def Con from 0.0456002 ++++++++++to 0.0456002
Heightened Def Con from 0.0456002 to 0.0456002
Heightened Def Con from 0.0456002 ++++++++to 0.0456002
Heightened Def Con from 0.0456002 +to 0.0456002
Heightened Def Con from 0.0456002 +++to 0.0456002
Heightened Def Con from 0.0456002 ++to 0.0456002
Heightened Def Con from 0.0456003 ++++++++++to 0.0456003
Heightened Def Con from 0.0456003 ++++++++++++to 0.0456003
Heightened Def Con from 0.0456003 ++++to 0.0456003
Heightened Def Con from 0.0456003 ++to 0.0456003
Heightened Def Con from 0.0456003 +++++++++++to 0.0456003
Heightened Def Con from 0.0456003 +++++++++to 0.0456003
Heightened Def Con from 0.0456003 +++++++++++++to 0.0456003
Heightened Def Con from 0.0456003 to 0.0456003
Heightened Def Con from 0.0456003 to 0.0456003
Heightened Def Con from 0.0456003 +to 0.0456003
Heightened Def Con from 0.0456003 to 0.0456003
Heightened Def Con from 0.0456003 ++++++++++to 0.0456003
Heightened Def Con from 0.0456003 to 0.0456003
Heightened Def Con from 0.0456003 ++++++++++++to 0.0456003
Heightened Def Con from 0.0456003 ++to 0.0456003
Heightened Def Con from 0.0456003 ++to 0.0456003
Heightened Def Con from 0.0456003 +to 0.0456003
Heightened Def Con from 0.0456003 to 0.0456003
Heightened Def Con from 0.0456003 to 0.0456003
Heightened Def Con from 0.0456003 ++to 0.0456003
Heightened Def Con from 0.0456003 +++to 0.0456003
Heightened Def Con from 0.0456003 to 0.0456003
Heightened Def Con from 0.0456003 +++++++++++to 0.0456003
Heightened Def Con from 0.0456003 ++to 0.0456003
Heightened Def Con from 0.0456003 +++to 0.0456003
Heightened Def Con from 0.0456003 ++++++++++to 0.0456003
Heightened Def Con from 0.0456003 to 0.0456003
Heightened Def Con from 0.0456003 +++++++++++to 0.0456003
Heightened Def Con from 0.0456003 +++to 0.0456003
Heightened Def Con from 0.0456003 +++++++to 0.0456003
Heightened Def Con from 0.0456003 +++to 0.0456003
Heightened Def Con from 0.0456003 ++++++to 0.0456003
Heightened Def Con from 0.0456003 ++to 0.0456003
Heightened Def Con from 0.0456003 +to 0.0456003
Heightened Def Con from 0.0456003 +++to 0.0456003
Heightened Def Con from 0.0456003 to 0.0456003
Heightened Def Con from 0.0456003 ++to 0.0456003
Heightened Def Con from 0.0456003 ++++to 0.0456003
Heightened Def Con from 0.0456003 +to 0.0456003
Heightened Def Con from 0.0456003 ++to 0.0456003
Heightened Def Con from 0.0456003 ++++++to 0.0456003
Heightened Def Con from 0.0456003 +++++++++to 0.0456003
Heightened Def Con from 0.0456003 +to 0.0456003
Heightened Def Con from 0.0456003 ++++++++to 0.0456003
Heightened Def Con from 0.0456003 ++++++to 0.0456003
Heightened Def Con from 0.0456003 to 0.0456003
Heightened Def Con from 0.0456003 +to 0.0456003
Heightened Def Con from 0.0456003 ++++to 0.0456003
Heightened Def Con from 0.0456003 +to 0.0456003
Heightened Def Con from 0.0456003 ++++to 0.0456003
Heightened Def Con from 0.0456003 +++++++++to 0.0456003
Heightened Def Con from 0.0456003 +++to 0.0456003
Heightened Def Con from 0.0456003 +++++to 0.0456003
Heightened Def Con from 0.0456003 ++to 0.0456003
Heightened Def Con from 0.0456003 ++++to 0.0456003
Heightened Def Con from 0.0456003 to 0.0456003
Heightened Def Con from 0.0456003 ++++to 0.0456003
Heightened Def Con from 0.0456003 ++++++++++to 0.0456003
Heightened Def Con from 0.0456003 +++++++++to 0.0456003
Heightened Def Con from 0.0456003 ++++++++++to 0.0456003
Heightened Def Con from 0.0456003 ++++++++to 0.0456003
Heightened Def Con from 0.0456003 to 0.0456003
Heightened Def Con from 0.0456003 +to 0.0456003
Heightened Def Con from 0.0456003 ++++to 0.0456003
Heightened Def Con from 0.0456003 to 0.0456003
Heightened Def Con from 0.0456003 ++++to 0.0456003
Heightened Def Con from 0.0456003 +++++++++to 0.0456003
Heightened Def Con from 0.0456003 +to 0.0456003
Heightened Def Con from 0.0456003 ++++++++to 0.0456003
Heightened Def Con from 0.0456003 ++++++++to 0.0456003
Heightened Def Con from 0.0456003 +++to 0.0456003
Heightened Def Con from 0.0456003 ++++++++++to 0.0456003
Heightened Def Con from 0.0456003 +++++++to 0.0456003
Heightened Def Con from 0.0456003 ++++++++++to 0.0456003
Heightened Def Con from 0.0456003 +++++++++to 0.0456003
Heightened Def Con from 0.0456003 ++++++++++++to 0.0456003
Heightened Def Con from 0.0456003 ++++++to 0.0456003
Heightened Def Con from 0.0456003 ++++to 0.0456003
Heightened Def Con from 0.0456003 ++++++to 0.0456003
Heightened Def Con from 0.0456003 +++++to 0.0456003
Heightened Def Con from 0.0456003 +++++++++to 0.0456003
Heightened Def Con from 0.0456003 ++++++to 0.0456003
Heightened Def Con from 0.0456003 ++++++to 0.0456003
Heightened Def Con from 0.0456003 +++to 0.0456003
Heightened Def Con from 0.0456003 +++++to 0.0456003
Heightened Def Con from 0.0456003 ++++++to 0.0456003
Heightened Def Con from 0.0456003 +++++to 0.0456003
Heightened Def Con from 0.0456003 +++to 0.0456003
Heightened Def Con from 0.0456003 +++to 0.0456003
Heightened Def Con from 0.0456003 ++to 0.0456003
Heightened Def Con from 0.0456003 ++++++++++to 0.0456003
Heightened Def Con from 0.0456003 ++++to 0.0456003
Heightened Def Con from 0.0456003 ++++++++++to 0.0456003
Heightened Def Con from 0.0456003 +++to 0.0456004
Heightened Def Con from 0.0456004 +++to 0.0456004
Heightened Def Con from 0.0456004 ++++++++++++to 0.0456004
Heightened Def Con from 0.0456004 ++to 0.0456004
Heightened Def Con from 0.0456004 ++to 0.0456004
Heightened Def Con from 0.0456004 +++++to 0.0456004
Heightened Def Con from 0.0456004 +++++++++++to 0.0456004
Heightened Def Con from 0.0456004 +++++++++++to 0.0456004
Heightened Def Con from 0.0456004 +++++++++++to 0.0456004
Heightened Def Con from 0.0456004 ++++to 0.0456004
Heightened Def Con from 0.0456004 to 0.0456004
Heightened Def Con from 0.0456004 +++++++++++++to 0.0456004
Heightened Def Con from 0.0456004 ++++to 0.0456004
Heightened Def Con from 0.0456004 +++++++++++to 0.0456004
Heightened Def Con from 0.0456004 ++++++++++++to 0.0456004
Heightened Def Con from 0.0456004 +++++++++++to 0.0456004
Heightened Def Con from 0.0456004 ++++++++++++to 0.0456004
Heightened Def Con from 0.0456004 ++++to 0.0456004
Heightened Def Con from 0.0456004 +to 0.0456004
Heightened Def Con from 0.0456004 +++++to 0.0456004
Heightened Def Con from 0.0456004 ++++++++++++to 0.0456004
Heightened Def Con from 0.0456004 +++to 0.0456004
Heightened Def Con from 0.0456004 ++++to 0.0456004
Heightened Def Con from 0.0456004 ++++++++++++to 0.0456004
Heightened Def Con from 0.0456004 ++++++++++to 0.0456004
Heightened Def Con from 0.0456004 +to 0.0456004
Heightened Def Con from 0.0456004 +++++to 0.0456004
Heightened Def Con from 0.0456004 +to 0.0456004
Heightened Def Con from 0.0456004 ++++++++++++to 0.0456004
Heightened Def Con from 0.0456004 ++++++++to 0.0456004
Heightened Def Con from 0.0456004 +++++++++to 0.0456004
Heightened Def Con from 0.0456004 +++++++++to 0.0456004
Heightened Def Con from 0.0456004 to 0.0456004
Heightened Def Con from 0.0456004 ++++++++++++to 0.0456004
Heightened Def Con from 0.0456004 +++++++++++to 0.0456004
Heightened Def Con from 0.0456004 +to 0.0456004
Heightened Def Con from 0.0456004 to 0.0456004
Heightened Def Con from 0.0456004 ++++++++++to 0.0456004
Heightened Def Con from 0.0456004 to 0.0456004
Heightened Def Con from 0.0456004 +to 0.0456004
Heightened Def Con from 0.0456004 +++++++++++++to 0.0456004
Heightened Def Con from 0.0456004 +++++to 0.0456004
Heightened Def Con from 0.0456004 ++++to 0.0456004
Heightened Def Con from 0.0456004 ++to 0.0456004
Heightened Def Con from 0.0456004 +++++++to 0.0456004
Heightened Def Con from 0.0456004 +++++++++to 0.0456004
Heightened Def Con from 0.0456004 ++++++to 0.0456004
Heightened Def Con from 0.0456004 ++++++to 0.0456004
Heightened Def Con from 0.0456004 ++++++++to 0.0456004
Heightened Def Con from 0.0466 ++to 0.0466
Heightened Def Con from 0.0466 ++++++++++to 0.0466
Heightened Def Con from 0.0466 +++++++++++to 0.0466
Heightened Def Con from 0.0466 +++to 0.0466
Heightened Def Con from 0.0466 +++++++++to 0.0466001
Heightened Def Con from 0.0466001 +++to 0.0466001
Heightened Def Con from 0.0466001 ++++++++++++to 0.0466001
Heightened Def Con from 0.0466001 +++++++++++++to 0.0466001
Heightened Def Con from 0.0466001 ++++++++++++to 0.0466001
Heightened Def Con from 0.0466001 +++++++++++++to 0.0466001
Heightened Def Con from 0.0466001 +++++++++++++to 0.0466001
Heightened Def Con from 0.0466001 +++++++++++++to 0.0466001
Heightened Def Con from 0.0466001 ++++++++to 0.0466001
Heightened Def Con from 0.0466001 +++++++++++++to 0.0466001
Heightened Def Con from 0.0466001 ++++++++to 0.0466001
Heightened Def Con from 0.0466001 +to 0.0466001
Heightened Def Con from 0.0466001 ++++++++++to 0.0466001
Heightened Def Con from 0.0466001 +++++++++to 0.0466001
Heightened Def Con from 0.0466001 +++++++++++to 0.0466001
Heightened Def Con from 0.0466001 ++++++++++++++to 0.0466001
Heightened Def Con from 0.0466001 +to 0.0466001
Heightened Def Con from 0.0466001 +++++++++++++to 0.0466001
Heightened Def Con from 0.0466001 to 0.0466001
Heightened Def Con from 0.0466001 ++++++++++++++to 0.0466001
Heightened Def Con from 0.0466001 ++++++++++++to 0.0466001
Heightened Def Con from 0.0466001 to 0.0466001
Heightened Def Con from 0.0466001 +++++to 0.0466001
Heightened Def Con from 0.0466001 +++to 0.0466001
Heightened Def Con from 0.0466001 ++++to 0.0466001
Heightened Def Con from 0.0466001 ++to 0.0466001
Heightened Def Con from 0.0466001 to 0.0466001
Heightened Def Con from 0.0466001 +++++++++++to 0.0466001
Heightened Def Con from 0.0466001 +++++++to 0.0466001
Heightened Def Con from 0.0466001 ++++to 0.0466001
Heightened Def Con from 0.0466001 to 0.0466001
Heightened Def Con from 0.0466001 ++++++++++++to 0.0466001
Heightened Def Con from 0.0466001 ++++++++++++to 0.0466001
Heightened Def Con from 0.0466001 +++++++to 0.0466001
Heightened Def Con from 0.0466001 ++++++to 0.0466001
Heightened Def Con from 0.0466001 ++to 0.0466001
Heightened Def Con from 0.0466001 to 0.0466001
Heightened Def Con from 0.0466001 +++++++++++++to 0.0466001
Heightened Def Con from 0.0466001 +++++++++to 0.0466001
Heightened Def Con from 0.0466001 ++++++to 0.0466001
Heightened Def Con from 0.0466001 +to 0.0466001
Heightened Def Con from 0.0466001 +++++++++++++to 0.0466001
Heightened Def Con from 0.0466001 +++to 0.0466001
Heightened Def Con from 0.0466001 ++++++++to 0.0466001
Heightened Def Con from 0.0466001 ++++++++++to 0.0466001
Heightened Def Con from 0.0466001 ++++++++++++to 0.0466001
Heightened Def Con from 0.0466001 +to 0.0466001
Heightened Def Con from 0.0466001 ++++++++++to 0.0466001
Heightened Def Con from 0.0466001 ++to 0.0466001
Heightened Def Con from 0.0466001 +++++to 0.0466001
Heightened Def Con from 0.0466001 to 0.0466001
Heightened Def Con from 0.0466001 ++++++++to 0.0466002
Heightened Def Con from 0.0466002 ++++++++++to 0.0466002
Heightened Def Con from 0.0466002 ++++++++++to 0.0466002
Heightened Def Con from 0.0466002 +++++++++to 0.0466002
Heightened Def Con from 0.0466002 +++++to 0.0466002
Heightened Def Con from 0.0466002 ++++++to 0.0466002
Heightened Def Con from 0.0466002 +++++++++to 0.0466002
Heightened Def Con from 0.0466002 ++++++++++++to 0.0466002
Heightened Def Con from 0.0466002 +++++++++++to 0.0466002
Heightened Def Con from 0.0466002 +++++to 0.0466002
Heightened Def Con from 0.0466002 +++++to 0.0466002
Heightened Def Con from 0.0466002 to 0.0466002
Heightened Def Con from 0.0466002 +++++++++to 0.0466002
Heightened Def Con from 0.0466002 +++to 0.0466002
Heightened Def Con from 0.0466002 to 0.0466002
Heightened Def Con from 0.0466002 +++++++to 0.0466002
Heightened Def Con from 0.0466002 ++++++to 0.0466002
Heightened Def Con from 0.0466002 ++++to 0.0466002
Heightened Def Con from 0.0466002 ++++++to 0.0466002
Heightened Def Con from 0.0466002 ++++++to 0.0466002
Heightened Def Con from 0.0466002 +to 0.0466002
Heightened Def Con from 0.0466002 to 0.0466002
Heightened Def Con from 0.0466002 +++++++to 0.0466002
Heightened Def Con from 0.0466002 +++to 0.0466002
Heightened Def Con from 0.0466002 ++++++++++to 0.0466002
Heightened Def Con from 0.0466002 ++to 0.0466002
Heightened Def Con from 0.0466002 ++to 0.0466002
Heightened Def Con from 0.0466002 ++++++++++to 0.0466002
Heightened Def Con from 0.0466002 ++++++++++++to 0.0466002
Heightened Def Con from 0.0466002 ++++++++++++++to 0.0466002
Heightened Def Con from 0.0466002 +++++++++to 0.0466002
Heightened Def Con from 0.0466002 ++++++++++++++to 0.0466002
Heightened Def Con from 0.0466002 ++to 0.0466002
Heightened Def Con from 0.0466002 ++to 0.0466002
Heightened Def Con from 0.0466002 to 0.0466002
Heightened Def Con from 0.0466002 ++++++++++to 0.0466002
Heightened Def Con from 0.0466002 +++++to 0.0466002
Heightened Def Con from 0.0466002 ++++++to 0.0466002
Heightened Def Con from 0.0466002 to 0.0466002
Heightened Def Con from 0.0466002 +to 0.0466002
Heightened Def Con from 0.0466002 +++to 0.0466002
Heightened Def Con from 0.0466002 ++++++to 0.0466002
Heightened Def Con from 0.0466002 ++++++to 0.0466002
Heightened Def Con from 0.0466002 +++++++++++++to 0.0466002
Heightened Def Con from 0.0466002 +++++++++to 0.0466002
Heightened Def Con from 0.0466002 +to 0.0466002
Heightened Def Con from 0.0466002 +++++++++++++to 0.0466002
Heightened Def Con from 0.0466002 +++++++++to 0.0466002
Heightened Def Con from 0.0466002 +to 0.0466002
Heightened Def Con from 0.0466002 +++++++++++to 0.0466002
Heightened Def Con from 0.0466002 to 0.0466002
Heightened Def Con from 0.0466002 +++++++to 0.0466002
Heightened Def Con from 0.0466002 ++to 0.0466002
Heightened Def Con from 0.0466002 to 0.0466002
Heightened Def Con from 0.0466002 +++++++++to 0.0466002
Heightened Def Con from 0.0466002 ++++to 0.0466002
Heightened Def Con from 0.0466002 +++++++++++to 0.0466002
Heightened Def Con from 0.0466002 ++to 0.0466002
Heightened Def Con from 0.0466002 to 0.0466002
Heightened Def Con from 0.0466002 ++++to 0.0466002
Heightened Def Con from 0.0466002 ++to 0.0466002
Heightened Def Con from 0.0466002 ++++++to 0.0466002
Heightened Def Con from 0.0466002 ++++to 0.0466002
Heightened Def Con from 0.0466002 +++++++++++++to 0.0466002
Heightened Def Con from 0.0466002 ++++++++++++to 0.0466002
Heightened Def Con from 0.0466002 +++++++++++to 0.0466002
Heightened Def Con from 0.0466002 ++++++++++to 0.0466002
Heightened Def Con from 0.0466002 ++++to 0.0466002
Heightened Def Con from 0.0466002 ++++++++++++to 0.0466002
Heightened Def Con from 0.0466002 ++++++++to 0.0466002
Heightened Def Con from 0.0466002 +to 0.0466002
Heightened Def Con from 0.0466002 ++to 0.0466002
Heightened Def Con from 0.0466002 to 0.0466002
Heightened Def Con from 0.0466002 ++++++++++to 0.0466002
Heightened Def Con from 0.0466002 ++++++++++++to 0.0466002
Heightened Def Con from 0.0466002 +++++++++++to 0.0466002
Heightened Def Con from 0.0466002 +++++++++++to 0.0466002
Heightened Def Con from 0.0466002 +to 0.0466002
Heightened Def Con from 0.0466002 +++++++++to 0.0466002
Heightened Def Con from 0.0466002 ++++++to 0.0466002
Heightened Def Con from 0.0466002 +++++to 0.0466002
Heightened Def Con from 0.0466002 ++++++++to 0.0466002
Heightened Def Con from 0.0466002 ++++++to 0.0466002
Heightened Def Con from 0.0466002 +to 0.0466002
Heightened Def Con from 0.0466002 to 0.0466002
Heightened Def Con from 0.0466002 ++++++++++++to 0.0466002
Heightened Def Con from 0.0466002 +++++++++++to 0.0466002
Heightened Def Con from 0.0466002 +++++to 0.0466002
Heightened Def Con from 0.0466002 +to 0.0466002
Heightened Def Con from 0.0466002 +to 0.0466002
Heightened Def Con from 0.0466002 +to 0.0466002
Heightened Def Con from 0.0466002 ++++to 0.0466002
Heightened Def Con from 0.0466002 to 0.0466002
Heightened Def Con from 0.0466002 +++++++++to 0.0466002
Heightened Def Con from 0.0466002 ++++++to 0.0466002
Heightened Def Con from 0.0466002 +++++++to 0.0466002
Heightened Def Con from 0.0466002 +++++++++to 0.0466002
Heightened Def Con from 0.0466002 ++++++++++++to 0.0466002
Heightened Def Con from 0.0466002 ++to 0.0466002
Heightened Def Con from 0.0466002 ++++to 0.0466002
Heightened Def Con from 0.0466002 ++++++to 0.0466002
Heightened Def Con from 0.0466002 +++++++++++to 0.0466002
Heightened Def Con from 0.0466002 +to 0.0466002
Heightened Def Con from 0.0466003 ++to 0.0466003
Heightened Def Con from 0.0466003 ++++++++++++to 0.0466003
Heightened Def Con from 0.0466003 ++++++++to 0.0466003
Heightened Def Con from 0.0466003 +++++++to 0.0466003
Heightened Def Con from 0.0466003 +to 0.0466003
Heightened Def Con from 0.0466003 to 0.0466003
Heightened Def Con from 0.0466003 ++++++++to 0.0466003
Heightened Def Con from 0.0466003 ++++to 0.0466003
Heightened Def Con from 0.0466003 ++++++++++to 0.0466003
Heightened Def Con from 0.0466003 +to 0.0466003
Heightened Def Con from 0.0466003 +++++++++++++to 0.0466003
Heightened Def Con from 0.0466003 ++to 0.0466003
Heightened Def Con from 0.0466003 to 0.0466003
Heightened Def Con from 0.0466003 ++++++++++to 0.0466003
Heightened Def Con from 0.0466003 ++to 0.0466003
Heightened Def Con from 0.0466003 +++++++++++++to 0.0466003
Heightened Def Con from 0.0466003 +to 0.0466003
Heightened Def Con from 0.0466003 +++++++++++to 0.0466003
Heightened Def Con from 0.0466003 ++++++++++++to 0.0466003
Heightened Def Con from 0.0466003 +++++++to 0.0466003
Heightened Def Con from 0.0466003 +++++++to 0.0466003
Heightened Def Con from 0.0466003 +++to 0.0466003
Heightened Def Con from 0.0466003 ++++++++++++to 0.0466003
Heightened Def Con from 0.0466003 +++++++++++to 0.0466003
Heightened Def Con from 0.0466003 +++++to 0.0466003
Heightened Def Con from 0.0466003 ++++++to 0.0466003
Heightened Def Con from 0.0466003 +++++to 0.0466003
Heightened Def Con from 0.0466003 ++++++++to 0.0466003
Heightened Def Con from 0.0466003 ++++++++++to 0.0466003
Heightened Def Con from 0.0466003 ++++++++to 0.0466003
Heightened Def Con from 0.0466003 +++++++++++to 0.0466003
Heightened Def Con from 0.0466003 ++to 0.0466003
Heightened Def Con from 0.0466003 +++++++++++to 0.0466003
Heightened Def Con from 0.0466003 +++to 0.0466003
Heightened Def Con from 0.0466003 ++to 0.0466003
Heightened Def Con from 0.0466003 +++++++++to 0.0466003
Heightened Def Con from 0.0466003 +++++to 0.0466003
Heightened Def Con from 0.0466003 to 0.0466003
Heightened Def Con from 0.0466003 +++++++++to 0.0466003
Heightened Def Con from 0.0466003 ++++++++++to 0.0466003
Heightened Def Con from 0.0466003 +++++++++++to 0.0466003
Heightened Def Con from 0.0466003 ++++++++++++to 0.0466003
Heightened Def Con from 0.0466003 ++++++++++++to 0.0466003
Heightened Def Con from 0.0466003 ++to 0.0466003
Heightened Def Con from 0.0466003 ++++++++to 0.0466003
Heightened Def Con from 0.0466003 ++++++++++to 0.0466003
Heightened Def Con from 0.0466003 +++++++++++++to 0.0466003
Heightened Def Con from 0.0466003 +++++++to 0.0466003
Heightened Def Con from 0.0466003 +++++to 0.0466003
Heightened Def Con from 0.0466003 to 0.0466003
Heightened Def Con from 0.0466003 +++++++++++to 0.0466003
Heightened Def Con from 0.0466003 to 0.0466003
Heightened Def Con from 0.0466003 ++++++++to 0.0466003
Heightened Def Con from 0.0466003 +++++++to 0.0466003
Heightened Def Con from 0.0466003 +++++++to 0.0466003
Heightened Def Con from 0.0466003 ++++++++++++to 0.0466003
Heightened Def Con from 0.0466003 +++++++++++++to 0.0466003
Heightened Def Con from 0.0466003 to 0.0466003
Heightened Def Con from 0.0466003 +++to 0.0466003
Heightened Def Con from 0.0466003 ++++++to 0.0466003
Heightened Def Con from 0.0466003 +++++++++++to 0.0466003
Heightened Def Con from 0.0466003 +++++++++to 0.0466003
Heightened Def Con from 0.0466003 ++++++to 0.0466003
Heightened Def Con from 0.0466003 ++++++++++++to 0.0466003
Heightened Def Con from 0.0466003 ++++++++to 0.0466003
Heightened Def Con from 0.0466003 +++++++++++to 0.0466003
Heightened Def Con from 0.0466003 ++++++to 0.0466003
Heightened Def Con from 0.0466003 ++++to 0.0466003
Heightened Def Con from 0.0466003 to 0.0466003
Heightened Def Con from 0.0466003 ++to 0.0466003
Heightened Def Con from 0.0466003 +++++++++to 0.0466003
Heightened Def Con from 0.0466003 ++++to 0.0466003
Heightened Def Con from 0.0466003 +to 0.0466003
Heightened Def Con from 0.0466003 ++++++to 0.0466003
Heightened Def Con from 0.0466003 ++++++to 0.0466003
Heightened Def Con from 0.0466003 +++++++to 0.0466003
Heightened Def Con from 0.0466003 ++to 0.0466003
Heightened Def Con from 0.0466003 +++++++++to 0.0466003
Heightened Def Con from 0.0466003 to 0.0466003
Heightened Def Con from 0.0466003 to 0.0466003
Heightened Def Con from 0.0466003 ++to 0.0466003
Heightened Def Con from 0.0466003 +++++++++++to 0.0466003
Heightened Def Con from 0.0466003 ++++++++++to 0.0466003
Heightened Def Con from 0.0466003 ++++++++++++to 0.0466003
Heightened Def Con from 0.0466003 to 0.0466003
Heightened Def Con from 0.0466003 +++++++to 0.0466003
Heightened Def Con from 0.0466003 ++to 0.0466003
Heightened Def Con from 0.0466003 ++++++++++to 0.0466003
Heightened Def Con from 0.0466003 +++++++++++++to 0.0466003
Heightened Def Con from 0.0466003 ++++++to 0.0466003
Heightened Def Con from 0.0466003 to 0.0466003
Heightened Def Con from 0.0466003 +to 0.0466003
Heightened Def Con from 0.0466003 +++++to 0.0466003
Heightened Def Con from 0.0466003 ++++++++++++++to 0.0466003
Heightened Def Con from 0.0466003 ++++++++++to 0.0466003
Heightened Def Con from 0.0466003 ++++++++to 0.0466003
Heightened Def Con from 0.0466004 +to 0.0466004
Heightened Def Con from 0.0466004 to 0.0466004
Heightened Def Con from 0.0466004 ++++++to 0.0466004
Heightened Def Con from 0.0466004 ++++++to 0.0466004
Heightened Def Con from 0.0466004 +++++++++++++to 0.0466004
Heightened Def Con from 0.0466004 ++++++++to 0.0466004
Heightened Def Con from 0.0466004 +++++++++to 0.0466004
Heightened Def Con from 0.0466004 ++++++++++to 0.0466004
Heightened Def Con from 0.0466004 ++++++++to 0.0466004
Heightened Def Con from 0.0466004 +to 0.0466004
Heightened Def Con from 0.0466004 +++++to 0.0466004
Heightened Def Con from 0.0466004 +++++to 0.0466004
Heightened Def Con from 0.0466004 ++to 0.0466004
Heightened Def Con from 0.0466004 +++++++++++++to 0.0466004
Heightened Def Con from 0.0466004 +++to 0.0466004
Heightened Def Con from 0.0466004 +++++++++++to 0.0466004
Heightened Def Con from 0.0466004 ++++++++++++to 0.0466004
Heightened Def Con from 0.0466004 +++++++++++to 0.0466004
Heightened Def Con from 0.0466004 ++to 0.0466004
Heightened Def Con from 0.0466004 +++++++++to 0.0466004
Heightened Def Con from 0.0466004 ++to 0.0466004
Heightened Def Con from 0.0466004 +to 0.0466004
Heightened Def Con from 0.0466004 ++++++++++++to 0.0466004
Heightened Def Con from 0.0466004 ++++to 0.0466004
Heightened Def Con from 0.0466004 ++to 0.0466004
Heightened Def Con from 0.0466004 ++++++++++++to 0.0466004
Heightened Def Con from 0.0466004 to 0.0466004
Heightened Def Con from 0.0466004 ++++++++++++to 0.0466004
Heightened Def Con from 0.0466004 +++++to 0.0466004
Heightened Def Con from 0.0466004 +++++++++to 0.0466004
Heightened Def Con from 0.0466004 ++++++to 0.0466004
Heightened Def Con from 0.0466004 ++++++++++++to 0.0466004
Heightened Def Con from 0.0466004 ++++to 0.0466004
Heightened Def Con from 0.0466004 ++++++to 0.0466004
Heightened Def Con from 0.0466004 to 0.0466004
Heightened Def Con from 0.0466004 +++to 0.0466004
Heightened Def Con from 0.0466004 +++++++++to 0.0466004
Heightened Def Con from 0.0466004 +++to 0.0466004
Heightened Def Con from 0.0466004 ++++++++++++to 0.0466004
Heightened Def Con from 0.0466004 to 0.0466004
Heightened Def Con from 0.0466004 ++to 0.0466004
Heightened Def Con from 0.0466004 +++to 0.0466004
Heightened Def Con from 0.0466004 +++++++to 0.0466004
Heightened Def Con from 0.0466004 +++++++++++++to 0.0466004
Heightened Def Con from 0.0466004 ++++++to 0.0466004
Heightened Def Con from 0.0466004 ++++++++++++to 0.0466004
Heightened Def Con from 0.0466004 ++++++++++++to 0.0466004
Heightened Def Con from 0.0466004 +++++++++to 0.0466004
Heightened Def Con from 0.0466004 ++++++++to 0.0466004
Heightened Def Con from 0.0466004 ++to 0.0466004
Heightened Def Con from 0.0466004 +++++++++++to 0.0466004
Heightened Def Con from 0.0466004 ++++to 0.0466004
Heightened Def Con from 0.0466004 +++++to 0.0466004
Heightened Def Con from 0.0466004 +to 0.0466004
Heightened Def Con from 0.0466004 +to 0.0466004
Heightened Def Con from 0.0466004 +++++to 0.0466004
Heightened Def Con from 0.0466004 +++++++++to 0.0466004
Heightened Def Con from 0.0466004 ++++++++++++to 0.0466004
Heightened Def Con from 0.0466004 +++to 0.0466004
Heightened Def Con from 0.0466004 ++++++++++++++to 0.0466004
Heightened Def Con from 0.0466004 +to 0.0466004
Heightened Def Con from 0.0466004 ++++++++++++to 0.0466004
Heightened Def Con from 0.0466004 ++++++++++++to 0.0466004
Heightened Def Con from 0.0466004 +++++++++++++to 0.0466004
Heightened Def Con from 0.0466004 ++++++++++to 0.0466004
Heightened Def Con from 0.0466004 ++++++++++to 0.0466004
Heightened Def Con from 0.0466004 ++++++++++++to 0.0466004
Heightened Def Con from 0.0466004 +++++++++to 0.0466004
Heightened Def Con from 0.0466004 ++to 0.0466004
Heightened Def Con from 0.0466004 ++to 0.0466004
Heightened Def Con from 0.0466004 ++++to 0.0466004
Heightened Def Con from 0.0466004 ++++to 0.0466004
Heightened Def Con from 0.0466004 to 0.0466004
Heightened Def Con from 0.0466004 ++++++++++++to 0.0466004
Heightened Def Con from 0.0466004 to 0.0466004
Heightened Def Con from 0.0466004 ++++to 0.0466004
Heightened Def Con from 0.0466004 +++to 0.0466004
Heightened Def Con from 0.0466004 ++++to 0.0466004
Heightened Def Con from 0.0466004 +++to 0.0466004
Heightened Def Con from 0.0466004 ++++++++++to 0.0466004
Heightened Def Con from 0.0466004 +++++++++++++to 0.0466004
Heightened Def Con from 0.0466004 +++++++++++to 0.0466004
Heightened Def Con from 0.0466004 ++++++++to 0.0466005
Heightened Def Con from 0.0466005 +++++++++++to 0.0466005
Heightened Def Con from 0.0466005 +++++++++++to 0.0466005
Heightened Def Con from 0.0466005 +++++++++to 0.0466005
Heightened Def Con from 0.0466005 ++++++++to 0.0466005
Heightened Def Con from 0.0466005 +to 0.0466005
Heightened Def Con from 0.0466005 +++++++++++to 0.0466005
Heightened Def Con from 0.0466005 +++++++to 0.0466005
Heightened Def Con from 0.0466005 ++++to 0.0466005
Heightened Def Con from 0.0466005 +++++++++++++to 0.0466005
Heightened Def Con from 0.0466005 +to 0.0466005
Heightened Def Con from 0.0466005 ++++++++to 0.0466005
Heightened Def Con from 0.0466005 +++++++++++to 0.0466005
Heightened Def Con from 0.0466005 +to 0.0466005
Heightened Def Con from 0.0466005 ++++++++++to 0.0466005
Heightened Def Con from 0.0466005 +to 0.0466005
Heightened Def Con from 0.0466005 +++++to 0.0466005
Heightened Def Con from 0.0466005 ++++to 0.0466005
Heightened Def Con from 0.0466005 ++++++++++to 0.0466005
Heightened Def Con from 0.0466005 +++++++++++to 0.0466005
Heightened Def Con from 0.0466005 ++++++++++to 0.0466005
Heightened Def Con from 0.0466005 +++++++++to 0.0466005
Heightened Def Con from 0.0466005 +to 0.0466005
Heightened Def Con from 0.0466005 ++++++++++to 0.0466005
Heightened Def Con from 0.0466005 to 0.0466005
Heightened Def Con from 0.0466005 ++++++++to 0.0466005
Heightened Def Con from 0.0466005 ++++++++++++to 0.0466005
Heightened Def Con from 0.0466005 +++++++++++to 0.0466005
Heightened Def Con from 0.0466005 ++++++++++to 0.0466005
Heightened Def Con from 0.0466005 +++++++++++++to 0.0466005
Heightened Def Con from 0.0466005 ++++++++++to 0.0466005
Heightened Def Con from 0.0466005 +++to 0.0466005
Heightened Def Con from 0.0466005 +to 0.0466005
Heightened Def Con from 0.0466005 ++++++++++to 0.0466005
Heightened Def Con from 0.0466005 +++++++++to 0.0466005
Heightened Def Con from 0.0466005 +++++++++++++to 0.0466005
Heightened Def Con from 0.0466005 +++++++to 0.0466005
Heightened Def Con from 0.0466005 ++++++++++to 0.0466005
Heightened Def Con from 0.0466005 +++to 0.0466005
Heightened Def Con from 0.0466005 ++++++++++++to 0.0466005
Heightened Def Con from 0.0466005 ++++++to 0.0466005
Heightened Def Con from 0.0466005 +++++++++++++to 0.0466005
Heightened Def Con from 0.0466005 ++++++++++++to 0.0466005
Heightened Def Con from 0.0466005 to 0.0466005
Heightened Def Con from 0.0466005 ++++++++to 0.0466005
Heightened Def Con from 0.0466005 ++++++++++to 0.0466005
Heightened Def Con from 0.0466005 ++++++++to 0.0466005
Heightened Def Con from 0.0466005 +++++++++++to 0.0466005
Heightened Def Con from 0.0466005 +++++++to 0.0466005
Heightened Def Con from 0.0466005 +++++++to 0.0466005
Heightened Def Con from 0.0466005 +++++++to 0.0466005
Heightened Def Con from 0.0466005 +++++to 0.0466005
Heightened Def Con from 0.0466005 +++++to 0.0466005
Heightened Def Con from 0.0466005 +to 0.0466005
Heightened Def Con from 0.0466005 +++++to 0.0466005
Heightened Def Con from 0.0466005 ++++++++to 0.0466005
Heightened Def Con from 0.0466005 ++++++++++to 0.0466005
Heightened Def Con from 0.0466005 ++++++++++++to 0.0466005
Heightened Def Con from 0.0466005 +++to 0.0466005
Heightened Def Con from 0.0466005 +++to 0.0466005
Heightened Def Con from 0.0466005 +++++++++++++to 0.0466005
Heightened Def Con from 0.0466005 +++++to 0.0466005
Heightened Def Con from 0.0466005 +++++++++++to 0.0466005
Heightened Def Con from 0.0466005 +to 0.0466005
Heightened Def Con from 0.0466005 +++++++++++++to 0.0466005
Heightened Def Con from 0.0466005 +++++++++to 0.0466005
Heightened Def Con from 0.0466005 +++++++++to 0.0466005
Heightened Def Con from 0.0466005 ++++++++++++to 0.0466005
Heightened Def Con from 0.0466005 ++to 0.0466005
Heightened Def Con from 0.0466005 ++++++++to 0.0466005
Heightened Def Con from 0.0466005 +++++++to 0.0466005
Heightened Def Con from 0.0466005 +++++++++++++to 0.0466005
Heightened Def Con from 0.0466005 ++++++++++++to 0.0466005
Heightened Def Con from 0.0466005 +to 0.0466005
Heightened Def Con from 0.0466005 +to 0.0466005
Heightened Def Con from 0.0466005 +++++++++++++to 0.0466005
Heightened Def Con from 0.0466005 ++++++to 0.0466005
Heightened Def Con from 0.0466005 ++++++to 0.0466005
Heightened Def Con from 0.0466005 ++++++++++++to 0.0466005
Heightened Def Con from 0.0466005 ++++++++++++to 0.0466005
Heightened Def Con from 0.0466005 ++++++++++++to 0.0466005
Heightened Def Con from 0.0466005 ++++to 0.0466005
Heightened Def Con from 0.0466005 +++++++++++to 0.0466005
Heightened Def Con from 0.0466005 ++++++++++++++to 0.0466005
Heightened Def Con from 0.0466005 ++++++++++to 0.0466005
Heightened Def Con from 0.0466005 +++++++++to 0.0466005
Heightened Def Con from 0.0466005 +++to 0.0466005
Heightened Def Con from 0.0466005 +to 0.0466005
Heightened Def Con from 0.0466005 ++++to 0.0466005
Heightened Def Con from 0.0466005 ++++++++++++to 0.0466005
Heightened Def Con from 0.0466005 ++++++++++to 0.0466005
Heightened Def Con from 0.0466005 +++++++++to 0.0466005
Heightened Def Con from 0.0466005 ++++++++++to 0.0466005
Heightened Def Con from 0.0466005 +++++to 0.0466005
Heightened Def Con from 0.0466005 +++to 0.0466005
Heightened Def Con from 0.0466005 ++++++++++to 0.0466005
Heightened Def Con from 0.0466005 +++to 0.0466005
Heightened Def Con from 0.0466005 +++++++++++to 0.0466006
Heightened Def Con from 0.0466006 ++++++++++++to 0.0466006
Heightened Def Con from 0.0466006 ++++++++to 0.0466006
Heightened Def Con from 0.0466006 ++++++++to 0.0466006
Heightened Def Con from 0.0466006 +++++++++++++to 0.0466006
Heightened Def Con from 0.0466006 +++to 0.0466006
Heightened Def Con from 0.0466006 +++++to 0.0466006
Heightened Def Con from 0.0466006 ++++++++++to 0.0466006
Heightened Def Con from 0.0466006 ++to 0.0466006
Heightened Def Con from 0.0466006 ++++++++++to 0.0466006
Heightened Def Con from 0.0466006 +++++to 0.0466006
Heightened Def Con from 0.0466006 ++++to 0.0466006
Heightened Def Con from 0.0466006 +++++++++to 0.0466006
Heightened Def Con from 0.0466006 +++++++to 0.0466006
Heightened Def Con from 0.0466006 ++++++++++++to 0.0466006
Heightened Def Con from 0.0466006 ++++++++to 0.0466006
Heightened Def Con from 0.0466006 +++++++to 0.0466006
Heightened Def Con from 0.0466006 +++++++++to 0.0466006
Heightened Def Con from 0.0466006 +++++++to 0.0466006
Heightened Def Con from 0.0466006 ++++++++to 0.0466006
Heightened Def Con from 0.0466006 ++to 0.0466006
Heightened Def Con from 0.0466006 +++++++++++++to 0.0466006
Heightened Def Con from 0.0466006 +to 0.0466006
Heightened Def Con from 0.0466006 to 0.0466006
Heightened Def Con from 0.0466006 ++++++++++++to 0.0466006
Heightened Def Con from 0.0466006 ++++++++++to 0.0466006
Heightened Def Con from 0.0466006 ++++++++++to 0.0466006
Heightened Def Con from 0.0466006 +++++++++++to 0.0466006
Heightened Def Con from 0.0466006 +++++++++to 0.0466006
Heightened Def Con from 0.0466006 +++++++++++to 0.0466006
Heightened Def Con from 0.0466006 ++++to 0.0466006
Heightened Def Con from 0.0466006 +++++++++++to 0.0466006
Heightened Def Con from 0.0466006 ++++++++++++to 0.0466006
Heightened Def Con from 0.0466006 +++++++++++to 0.0466006
Heightened Def Con from 0.0466006 ++to 0.0466006
Heightened Def Con from 0.0466006 +++++++++++to 0.0466006
Heightened Def Con from 0.0466006 to 0.0466006
Heightened Def Con from 0.0466006 +++++++++++++to 0.0466006
Heightened Def Con from 0.0466006 +to 0.0466006
Heightened Def Con from 0.0466006 ++++++++++++to 0.0466006
Heightened Def Con from 0.0466006 +++++++to 0.0466006
Heightened Def Con from 0.0466006 +to 0.0466006
Heightened Def Con from 0.0466006 +++++++++++++to 0.0466006
Heightened Def Con from 0.0466006 +++++++to 0.0466006
Heightened Def Con from 0.0466006 to 0.0466006
Heightened Def Con from 0.0466006 +++to 0.0466006
Heightened Def Con from 0.0466006 +++++++to 0.0466006
Heightened Def Con from 0.0466006 +++++++++++++to 0.0466006
Heightened Def Con from 0.0466006 ++++++++to 0.0466006
Heightened Def Con from 0.0466006 +to 0.0466006
Heightened Def Con from 0.0466006 +to 0.0466006
Heightened Def Con from 0.0466006 +++++++++++to 0.0466006
Heightened Def Con from 0.0466006 ++++++++++++to 0.0466006
Heightened Def Con from 0.0466006 ++++++++++++to 0.0466006
Heightened Def Con from 0.0466006 ++++++++++++to 0.0466006
Heightened Def Con from 0.0466006 ++++++++++to 0.0466006
Heightened Def Con from 0.0466006 +++++++to 0.0466006
Heightened Def Con from 0.0466006 ++++++++to 0.0466006
Heightened Def Con from 0.0466006 +to 0.0466006
Heightened Def Con from 0.0466006 ++to 0.0466006
Heightened Def Con from 0.0466006 to 0.0466006
Heightened Def Con from 0.0466006 ++++++to 0.0466006
Heightened Def Con from 0.0466006 ++++++++to 0.0466006
Heightened Def Con from 0.0466006 +++++++++to 0.0466006
Heightened Def Con from 0.0466006 to 0.0466006
Heightened Def Con from 0.0466006 +++++++++to 0.0466006
Heightened Def Con from 0.0466006 +++++to 0.0466006
Heightened Def Con from 0.0466006 +++++++++to 0.0466006
Heightened Def Con from 0.0466006 +++++++++++to 0.0466006
Heightened Def Con from 0.0466006 +++to 0.0466006
Heightened Def Con from 0.0466006 +++to 0.0466006
Heightened Def Con from 0.0466006 ++++++++to 0.0466006
Heightened Def Con from 0.0466006 ++++++++++to 0.0466006
Heightened Def Con from 0.0466006 ++++++++++++to 0.0466006
Heightened Def Con from 0.0466006 ++++++++++to 0.0466006
Heightened Def Con from 0.0466006 ++++++++++++to 0.0466006
Heightened Def Con from 0.0466006 +++++++++++++to 0.0466006
Heightened Def Con from 0.0466006 ++++++++++++++to 0.0466006
Heightened Def Con from 0.0466006 +++++++++to 0.0466006
Heightened Def Con from 0.0466006 +++++++++++++to 0.0466006
Heightened Def Con from 0.0466006 +++to 0.0466006
Heightened Def Con from 0.0466006 +++++++++++++to 0.0466006
Heightened Def Con from 0.0466006 ++++++++++++to 0.0466006
Heightened Def Con from 0.0466006 +++++++++++to 0.0466006
Heightened Def Con from 0.0466006 ++++++++++++to 0.0466006
Heightened Def Con from 0.0466006 ++++++to 0.0466006
Heightened Def Con from 0.0466006 +++++++++++to 0.0466006
Heightened Def Con from 0.0466006 ++++to 0.0466006
Heightened Def Con from 0.0466006 ++to 0.0466006
Heightened Def Con from 0.0466006 to 0.0466006
Heightened Def Con from 0.0466006 ++++++++++to 0.0466006
Heightened Def Con from 0.0466006 +++++++++++++to 0.0466006
Heightened Def Con from 0.0466006 +++++++to 0.0466006
Heightened Def Con from 0.0466006 ++++to 0.0466006
Heightened Def Con from 0.0466006 to 0.0466006
Heightened Def Con from 0.0466006 ++++++++to 0.0466006
Heightened Def Con from 0.0466006 ++++++++++++++to 0.0466006
Heightened Def Con from 0.0466006 ++++++++++to 0.0466006
Heightened Def Con from 0.0466006 ++++++++++++to 0.0466006
Heightened Def Con from 0.0466006 ++++++++++++++to 0.0466006
Heightened Def Con from 0.0466006 ++++to 0.0466006
Heightened Def Con from 0.0466006 ++++++++++to 0.0466006
Heightened Def Con from 0.0466006 +++++++++to 0.0466007
Heightened Def Con from 0.0466007 ++++++to 0.0466007
Heightened Def Con from 0.0466007 ++++++to 0.0466007
Heightened Def Con from 0.0466007 +++++++++++to 0.0466007
Heightened Def Con from 0.0466007 ++++++++++++to 0.0466007
Heightened Def Con from 0.0466007 +++++++++++to 0.0466007
Heightened Def Con from 0.0466007 +++++++++++to 0.0466007
Heightened Def Con from 0.0466007 ++++to 0.0466007
Heightened Def Con from 0.0466007 +++++++to 0.0466007
Heightened Def Con from 0.0466007 ++++++++++++++to 0.0466007
Heightened Def Con from 0.0466007 +to 0.0466007
Heightened Def Con from 0.0466007 +++++++to 0.0466007
Heightened Def Con from 0.0466007 +++++++++++++to 0.0466007
Heightened Def Con from 0.0466007 ++++to 0.0466007
Heightened Def Con from 0.0466007 +++++++++++to 0.0466007
Heightened Def Con from 0.0466007 +to 0.0466007
Heightened Def Con from 0.0466007 ++++++++++++to 0.0466007
Heightened Def Con from 0.0466007 +++++++++to 0.0466007
Heightened Def Con from 0.0466007 ++++++++++++to 0.0466007
Heightened Def Con from 0.0466007 +++++++++++to 0.0466007
Heightened Def Con from 0.0466007 +++++++++++to 0.0466007
Heightened Def Con from 0.0466007 ++++++++++++to 0.0466007
Heightened Def Con from 0.0466007 ++to 0.0466007
Heightened Def Con from 0.0466007 +++++++++to 0.0466007
Heightened Def Con from 0.0466007 ++++to 0.0466007
Heightened Def Con from 0.0466007 ++++++++++++to 0.0466007
Heightened Def Con from 0.0466007 ++++++++++to 0.0466007
Heightened Def Con from 0.0466007 +++++++++++to 0.0466007
Heightened Def Con from 0.0466007 ++++++++++++to 0.0466007
Heightened Def Con from 0.0466007 +++++to 0.0466007
Heightened Def Con from 0.0466007 ++++++to 0.0466007
Heightened Def Con from 0.0466007 ++++++++++to 0.0466007
Heightened Def Con from 0.0466007 ++++++++++++to 0.0466007
Heightened Def Con from 0.0466007 ++++to 0.0466007
Heightened Def Con from 0.0466007 +++++++++++to 0.0466007
Heightened Def Con from 0.0466007 ++++++++++++to 0.0466007
Heightened Def Con from 0.0466007 +++++++++++++to 0.0466007
Heightened Def Con from 0.0466007 ++++++++++++to 0.0466007
Heightened Def Con from 0.0466007 ++++++++++++to 0.0466007
Heightened Def Con from 0.0466007 +++++++to 0.0466007
Heightened Def Con from 0.0466007 to 0.0466007
Heightened Def Con from 0.0466007 +++++++++++to 0.0466007
Heightened Def Con from 0.0466007 +++++++++to 0.0466007
Heightened Def Con from 0.0466007 +++++to 0.0466007
Heightened Def Con from 0.0466007 +++++++to 0.0466007
Heightened Def Con from 0.0466007 ++to 0.0466007
Heightened Def Con from 0.0466007 +++++to 0.0466007
Heightened Def Con from 0.0466007 +++++++++++to 0.0466007
Heightened Def Con from 0.0466007 +++++++++++++to 0.0466007
Heightened Def Con from 0.0466007 ++++to 0.0466007
Heightened Def Con from 0.0466007 +++to 0.0466007
Heightened Def Con from 0.0466007 +++++++++++to 0.0466007
Heightened Def Con from 0.0466007 ++++++to 0.0466007
Heightened Def Con from 0.0466007 +++++++to 0.0466007
Heightened Def Con from 0.0466007 ++++++++++++++to 0.0466007
Heightened Def Con from 0.0466007 ++to 0.0466007
Heightened Def Con from 0.0466007 to 0.0466007
Heightened Def Con from 0.0466007 +++++++++++to 0.0466007
Heightened Def Con from 0.0466007 +++++++++++++to 0.0466007
Heightened Def Con from 0.0466007 +++++to 0.0466007
Heightened Def Con from 0.0466007 +++++++++++to 0.0466007
Heightened Def Con from 0.0466007 ++++++++++++to 0.0466007
Heightened Def Con from 0.0466007 ++to 0.0466007
Heightened Def Con from 0.0466007 ++++++++++to 0.0466007
Heightened Def Con from 0.0466007 ++++++++to 0.0466007
Heightened Def Con from 0.0466007 +++++++++++to 0.0466007
Heightened Def Con from 0.0466007 ++++++to 0.0466007
Heightened Def Con from 0.0466007 to 0.0466007
Heightened Def Con from 0.0466007 +++to 0.0466007
Heightened Def Con from 0.0466007 +++++++++++to 0.0466007
Heightened Def Con from 0.0466007 +++++++to 0.0466007
Heightened Def Con from 0.0466007 ++++++++++++to 0.0466007
Heightened Def Con from 0.0466007 +++++++++++++to 0.0466007
Heightened Def Con from 0.0466007 ++++++++to 0.0466007
Heightened Def Con from 0.0466007 ++to 0.0466007
Heightened Def Con from 0.0466007 ++++++++++++to 0.0466007
Heightened Def Con from 0.0466007 to 0.0466007
Heightened Def Con from 0.0466007 +++++++++++++to 0.0466007
Heightened Def Con from 0.0466007 ++++++++++to 0.0466007
Heightened Def Con from 0.0466007 ++++to 0.0466007
Heightened Def Con from 0.0466007 ++++++++to 0.0466007
Heightened Def Con from 0.0466007 ++++++++++++to 0.0466007
Heightened Def Con from 0.0466007 +++++++to 0.0466007
Heightened Def Con from 0.0466007 ++to 0.0466007
Heightened Def Con from 0.0466007 +++++++++to 0.0466007
Heightened Def Con from 0.0466007 ++++++++++++to 0.0466007
Heightened Def Con from 0.0466007 ++++++to 0.0466007
Heightened Def Con from 0.0466007 ++++++++++++to 0.0466007
Heightened Def Con from 0.0466007 ++to 0.0466007
Heightened Def Con from 0.0466007 ++++++++++to 0.0466007
Heightened Def Con from 0.0466007 +++++++++++to 0.0466007
Heightened Def Con from 0.0466007 +++++++++to 0.0466007
Heightened Def Con from 0.0466007 +++++++to 0.0466007
Heightened Def Con from 0.0466007 ++++++++to 0.0466007
Heightened Def Con from 0.0466007 ++++++++++++to 0.0466007
Heightened Def Con from 0.0466007 ++++++++++++++to 0.0466007
Heightened Def Con from 0.0466007 ++++++++++++to 0.0466007
Heightened Def Con from 0.0466007 ++++++++++++++to 0.0466007
Heightened Def Con from 0.0466007 ++++++++++to 0.0466007
Heightened Def Con from 0.0466007 ++++++++to 0.0466007
Heightened Def Con from 0.0466007 ++++++to 0.0466008
Heightened Def Con from 0.0466008 ++++++++++to 0.0466008
Heightened Def Con from 0.0466008 ++++++++++to 0.0466008
Heightened Def Con from 0.0466008 ++to 0.0466008
Heightened Def Con from 0.0466008 ++++++to 0.0466008
Heightened Def Con from 0.0466008 ++to 0.0466008
Heightened Def Con from 0.0466008 ++++++++++++to 0.0466008
Heightened Def Con from 0.0466008 ++++++++++++to 0.0466008
Heightened Def Con from 0.0466008 ++++++to 0.0466008
Heightened Def Con from 0.0466008 ++++++++++to 0.0466008
Heightened Def Con from 0.0466008 ++++++++++++to 0.0466008
Heightened Def Con from 0.0466008 +++++++++++++to 0.0466008
Heightened Def Con from 0.0466008 ++++++++++++to 0.0466008
Heightened Def Con from 0.0466008 +++++++++++to 0.0466008
Heightened Def Con from 0.0466008 to 0.0466008
Heightened Def Con from 0.0466008 ++++to 0.0466008
Heightened Def Con from 0.0466008 +++to 0.0466008
Heightened Def Con from 0.0466008 +++++++++to 0.0466008
Heightened Def Con from 0.0466008 to 0.0466008
Heightened Def Con from 0.0466008 +++++++++++to 0.0466008
Heightened Def Con from 0.0466008 +++++++to 0.0466008
Heightened Def Con from 0.0466008 ++++++++++to 0.0466008
Heightened Def Con from 0.0466008 +to 0.0466008
Heightened Def Con from 0.0466008 ++++++++++++to 0.0466008
Heightened Def Con from 0.0466008 +++++++++++to 0.0466008
Heightened Def Con from 0.0466008 ++++++++to 0.0466008
Heightened Def Con from 0.0466008 +++++++++to 0.0466008
Heightened Def Con from 0.0466008 +++++++++++to 0.0466008
Heightened Def Con from 0.0466008 +to 0.0466008
Heightened Def Con from 0.0466008 ++++++++++to 0.0466008
Heightened Def Con from 0.0466008 ++++to 0.0466008
Heightened Def Con from 0.0466008 +++++to 0.0466008
Heightened Def Con from 0.0466008 +++++++++to 0.0466008
Heightened Def Con from 0.0466008 to 0.0466008
Heightened Def Con from 0.0466008 +++++++++++++to 0.0466008
Heightened Def Con from 0.0466008 +++++++++++to 0.0466008
Heightened Def Con from 0.0466008 +++++++++to 0.0466008
Heightened Def Con from 0.0466008 ++++++++++++to 0.0466008
Heightened Def Con from 0.0466008 ++++++++++++to 0.0466008
Heightened Def Con from 0.0466008 +++++to 0.0466008
Heightened Def Con from 0.0466008 ++++++++++to 0.0466008
Heightened Def Con from 0.0466008 +++++++++to 0.0466008
Heightened Def Con from 0.0466008 ++++++++++to 0.0466008
Heightened Def Con from 0.0466008 to 0.0466008
Heightened Def Con from 0.0466008 +++++++++++to 0.0466008
Heightened Def Con from 0.0466008 ++++++++to 0.0466008
Heightened Def Con from 0.0466008 +++++++++++++to 0.0466008
Heightened Def Con from 0.0466008 ++++++++++++to 0.0466008
Heightened Def Con from 0.0466008 +to 0.0466008
Heightened Def Con from 0.0466008 ++++++++++++to 0.0466008
Heightened Def Con from 0.0466008 ++++++++++++to 0.0466008
Heightened Def Con from 0.0466008 +++++++++to 0.0466008
Heightened Def Con from 0.0466008 ++++to 0.0466008
Heightened Def Con from 0.0466008 ++++++++++++to 0.0466008
Heightened Def Con from 0.0466008 +++to 0.0466008
Heightened Def Con from 0.0466008 +++++++to 0.0466008
Heightened Def Con from 0.0466008 ++++++++++++to 0.0466008
Heightened Def Con from 0.0466008 +++++++++to 0.0466008
Heightened Def Con from 0.0466008 ++++++to 0.0466008
Heightened Def Con from 0.0466008 ++++++++++to 0.0466008
Heightened Def Con from 0.0466008 ++++++++++++to 0.0466008
Heightened Def Con from 0.0466008 +to 0.0466008
Heightened Def Con from 0.0466008 +++++++++++to 0.0466008
Heightened Def Con from 0.0466008 +++to 0.0466008
Heightened Def Con from 0.0466008 +++to 0.0466008
Heightened Def Con from 0.0466008 +++++++++to 0.0466008
Heightened Def Con from 0.0466008 +++++to 0.0466008
Heightened Def Con from 0.0466008 ++++++++++to 0.0466008
Heightened Def Con from 0.0466008 +++++++++++++to 0.0466008
Heightened Def Con from 0.0466008 to 0.0466008
Heightened Def Con from 0.0466008 +++++++++++to 0.0466008
Heightened Def Con from 0.0466008 ++++++++++++to 0.0466008
Heightened Def Con from 0.0466008 +++++++++++++to 0.0466008
Heightened Def Con from 0.0466008 +++++++++++to 0.0466008
Heightened Def Con from 0.0466008 +++++++++++to 0.0466008
Heightened Def Con from 0.0466008 +++++++++to 0.0466008
Heightened Def Con from 0.0466008 ++++++++++to 0.0466008
Heightened Def Con from 0.0466008 ++++++++++++to 0.0466008
Heightened Def Con from 0.0466008 ++++++++++++to 0.0466008
Heightened Def Con from 0.0466008 +++to 0.0466008
Heightened Def Con from 0.0466008 ++++++++++++to 0.0466008
Heightened Def Con from 0.0466008 +++++++to 0.0466008
Heightened Def Con from 0.0466008 +++++++++++++to 0.0466008
Heightened Def Con from 0.0466008 +++++++to 0.0466008
Heightened Def Con from 0.0466008 +++++++++++++to 0.0466008
Heightened Def Con from 0.0466008 ++++++++++++to 0.0466008
Heightened Def Con from 0.0466008 ++++++++++++to 0.0466008
Heightened Def Con from 0.0466008 ++++++++++to 0.0466008
Heightened Def Con from 0.0466008 ++++++++++to 0.0466008
Heightened Def Con from 0.0466008 ++++++++++++to 0.0466008
Heightened Def Con from 0.0466008 ++++++to 0.0466008
Heightened Def Con from 0.0466008 to 0.0466008
Heightened Def Con from 0.0466008 ++++++++++++to 0.0466008
Heightened Def Con from 0.0466008 ++++++++++++to 0.0466008
Heightened Def Con from 0.0466008 ++++++++++++to 0.0466008
Heightened Def Con from 0.0466008 +++++++to 0.0466008
Heightened Def Con from 0.0466008 +++++++++++to 0.0466008
Heightened Def Con from 0.0466008 +++++++to 0.0466008
Heightened Def Con from 0.0466008 ++++++++++++to 0.0466008
Heightened Def Con from 0.0466008 +++++++++++to 0.0466008
Heightened Def Con from 0.0466008 ++++++++to 0.0466008
Heightened Def Con from 0.0466008 ++++++++++++to 0.0466008
Heightened Def Con from 0.0466008 ++++++++to 0.0466008
Heightened Def Con from 0.0466008 +++++++++to 0.0466008
Heightened Def Con from 0.0466008 ++++++++++++to 0.0466008
Heightened Def Con from 0.0466008 +++++++++to 0.0466008
Heightened Def Con from 0.0466008 +++++++++++++to 0.0466008
Heightened Def Con from 0.0466008 +++++++++++to 0.0466008
Heightened Def Con from 0.0466008 ++++++++to 0.0466009
Heightened Def Con from 0.0466009 to 0.0466009
Heightened Def Con from 0.0466009 ++++++++++++to 0.0466009
Heightened Def Con from 0.0466009 +to 0.0466009
Heightened Def Con from 0.0466009 ++++++to 0.0466009
Heightened Def Con from 0.0466009 +++++++++++to 0.0466009
Heightened Def Con from 0.0466009 ++++++++to 0.0466009
Heightened Def Con from 0.0466009 +++++++++++++to 0.0466009
Heightened Def Con from 0.0466009 ++++++++++++to 0.0466009
Heightened Def Con from 0.0466009 +++++++++++to 0.0466009
Heightened Def Con from 0.0466009 ++++++++++to 0.0466009
Heightened Def Con from 0.0466009 +++++to 0.0466009
Heightened Def Con from 0.0466009 ++++++++++++to 0.0466009
Heightened Def Con from 0.0466009 ++++++++++++to 0.0466009
Heightened Def Con from 0.0466009 +to 0.0466009
Heightened Def Con from 0.0466009 +++++++++++to 0.0466009
Heightened Def Con from 0.0466009 ++++++++++to 0.0466009
Heightened Def Con from 0.0466009 +++++++++to 0.0466009
Heightened Def Con from 0.0466009 +++++++++to 0.0466009
Heightened Def Con from 0.0466009 ++to 0.0466009
Heightened Def Con from 0.0466009 +++++++to 0.0466009
Heightened Def Con from 0.0466009 ++++++++++to 0.0466009
Heightened Def Con from 0.0466009 ++++++++++to 0.0466009
Heightened Def Con from 0.0466009 +++++++++to 0.0466009
Heightened Def Con from 0.0466009 ++++++++++to 0.0466009
Heightened Def Con from 0.0466009 ++++++++++++to 0.0466009
Heightened Def Con from 0.0466009 ++++++++++++to 0.0466009
Heightened Def Con from 0.0466009 ++to 0.0466009
Heightened Def Con from 0.0466009 +++++++++++to 0.0466009
Heightened Def Con from 0.0466009 ++++++++++++to 0.0466009
Heightened Def Con from 0.0466009 +++++++++++to 0.0466009
Heightened Def Con from 0.0466009 +++++++++++to 0.0466009
Heightened Def Con from 0.0466009 ++++++++to 0.0466009
Heightened Def Con from 0.0466009 ++++++++++++to 0.0466009
Heightened Def Con from 0.0466009 to 0.0466009
Heightened Def Con from 0.0466009 ++to 0.0466009
Heightened Def Con from 0.0466009 ++++++++++++to 0.0466009
Heightened Def Con from 0.0466009 +++++++++++++to 0.0466009
Heightened Def Con from 0.0466009 +++++++++++++to 0.0466009
Heightened Def Con from 0.0466009 ++++++++++to 0.0466009
Heightened Def Con from 0.0466009 ++++++to 0.0466009
Heightened Def Con from 0.0466009 +++++++++++to 0.0466009
Heightened Def Con from 0.0466009 +++++++++++to 0.0466009
Heightened Def Con from 0.0466009 ++++++++++to 0.0466009
Heightened Def Con from 0.0466009 ++++++++++++to 0.0466009
Heightened Def Con from 0.0466009 ++++++++to 0.0466009
Heightened Def Con from 0.0466009 +to 0.0466009
Heightened Def Con from 0.0466009 ++++++to 0.0466009
Heightened Def Con from 0.0466009 ++++++++++++to 0.0466009
Heightened Def Con from 0.0466009 +++++++++++++to 0.0466009
Heightened Def Con from 0.0466009 ++++to 0.0466009
Heightened Def Con from 0.0466009 +++++++++++to 0.0466009
Heightened Def Con from 0.0466009 +++++++++++++to 0.0466009
Heightened Def Con from 0.0466009 ++++++++++++to 0.0466009
Heightened Def Con from 0.0466009 ++++++++++to 0.0466009
Heightened Def Con from 0.0466009 +++++++to 0.0466009
Heightened Def Con from 0.0466009 ++++++++to 0.0466009
Heightened Def Con from 0.0466009 +++to 0.0466009
Heightened Def Con from 0.0466009 ++++++++to 0.0466009
Heightened Def Con from 0.0466009 +++++++++++++to 0.0466009
Heightened Def Con from 0.0466009 to 0.0466009
Heightened Def Con from 0.0466009 +++++++to 0.0466009
Heightened Def Con from 0.0466009 +++++++to 0.0466009
Heightened Def Con from 0.0466009 +++++++++++to 0.0466009
Heightened Def Con from 0.0466009 ++++++++++to 0.0466009
Heightened Def Con from 0.0466009 +to 0.0466009
Heightened Def Con from 0.0466009 +++++++++++to 0.0466009
Heightened Def Con from 0.0466009 +++++++++++to 0.0466009
Heightened Def Con from 0.0466009 +++++++++to 0.0466009
Heightened Def Con from 0.0466009 +++++++++++to 0.0466009
Heightened Def Con from 0.0466009 +++++++++to 0.0466009
Heightened Def Con from 0.0466009 to 0.0466009
Heightened Def Con from 0.0466009 +++++++++++to 0.0466009
[...]
Heightened Def Con from 0.798589 ++to 0.798589
Heightened Def Con from 0.798589 to 0.798589
Heightened Def Con from 0.798589 to 0.798589
Heightened Def Con from 0.798589 to 0.798589
Heightened Def Con from 0.798589 to 0.798589
Heightened Def Con from 0.798589 to 0.798589
Heightened Def Con from 0.798589 to 0.798589
Heightened Def Con from 0.798589 +++to 0.798589
Heightened Def Con from 1.02759 to 1.02759
Heightened Def Con from 1.02759 ++to 1.02759
Heightened Def Con from 1.02759 to 1.02759
Heightened Def Con from 1.21859 to 1.21859
Heightened Def Con from 1.21859 +++++to 1.21859
Heightened Def Con from 1.21859 +++to 1.21859
Heightened Def Con from 1.21859 ++++++++++to 1.21859
Heightened Def Con from 1.21859 +to 1.21859
Heightened Def Con from 1.21859 to 1.21859
Heightened Def Con from 1.21859 +++to 1.21859
Heightened Def Con from 1.35759 to 1.35759
Heightened Def Con from 1.35759 to 1.35759
Heightened Def Con from 1.35759 to 1.35759
Heightened Def Con from 1.35759 to 1.35759
Heightened Def Con from 1.35759 ++++++++++to 1.35759
Heightened Def Con from 1.35759 ++++++++++++to 1.35759
Heightened Def Con from 1.35759 ++++++++++to 1.35759
Heightened Def Con from 1.35759 ++to 1.35759
Heightened Def Con from 1.35759 +to 1.35759
Heightened Def Con from 1.35759 +++++to 1.35759
Heightened Def Con from 1.35759 +to 1.35759
Heightened Def Con from 1.35759 +to 1.35759
Heightened Def Con from 1.35759 to 1.35759
Heightened Def Con from 1.35759 to 1.35759
Heightened Def Con from 1.35759 ++to 1.35759
Heightened Def Con from 1.35759 to 1.35759
Heightened Def Con from 1.35759 +to 1.35759
Heightened Def Con from 1.35759 to 1.35759
Heightened Def Con from 1.35759 +to 1.35759
Heightened Def Con from 1.35759 to 1.35759
Heightened Def Con from 1.35759 +to 1.35759
Heightened Def Con from 1.35759 +to 1.35759
Heightened Def Con from 1.42559 +to 1.42559
Heightened Def Con from 1.42559 to 1.42559
Heightened Def Con from 1.42559 +++++to 1.42559
Heightened Def Con from 1.42559 to 1.42559
Heightened Def Con from 1.42559 ++++++++++++to 1.42559
Heightened Def Con from 1.42559 to 1.42559
Heightened Def Con from 1.73759 +to 1.73759
Heightened Def Con from 1.73759 to 1.73759
Heightened Def Con from 1.73759 to 1.73759
Heightened Def Con from 1.73759 ++++++to 1.73759
Heightened Def Con from 1.73759 to 1.73759
Heightened Def Con from 1.73759 ++++to 1.73759
Heightened Def Con from 1.73759 ++++to 1.73759
Heightened Def Con from 1.73759 to 1.73759
Heightened Def Con from 1.73759 ++++++++++++to 1.73759
Heightened Def Con from 1.73759 ++to 1.73759
Heightened Def Con from 1.73759 +++++++++to 1.73759
Heightened Def Con from 1.73759 +to 1.73759
Heightened Def Con from 1.73759 ++++++++++++to 1.73759
Heightened Def Con from 1.73759 +++to 1.73759
Heightened Def Con from 1.73759 +++to 1.73759
Heightened Def Con from 1.73759 to 1.73759
Heightened Def Con from 1.73759 to 1.73759
Heightened Def Con from 1.73759 +to 1.73759
Heightened Def Con from 2.46059 +to 2.46059
Heightened Def Con from 2.46059 to 2.46059
Heightened Def Con from 2.46059 +++to 2.46059
Heightened Def Con from 2.46059 +to 2.46059
Heightened Def Con from 2.46059 ++++++++++++to 2.46059
Heightened Def Con from 2.46059 +++to 2.46059
Heightened Def Con from 2.46059 ++++to 2.46059
Heightened Def Con from 2.49359 ++to 2.49359
Heightened Def Con from 2.49359 +++++++to 2.49359
Heightened Def Con from 2.49359 ++to 2.49359
Heightened Def Con from 2.49359 ++++++++++to 2.49359
Heightened Def Con from 2.61059 ++to 2.61059
Heightened Def Con from 2.61059 +to 2.61059
Heightened Def Con from 2.61059 +++to 2.61059
Heightened Def Con from 2.61059 +to 2.61059
Heightened Def Con from 2.61059 ++++to 2.61059
Heightened Def Con from 2.61059 +++++++++to 2.61059
Heightened Def Con from 2.61059 +++++++++to 2.61059
Heightened Def Con from 2.61059 +++++to 2.61059
Heightened Def Con from 2.61059 to 2.61059
Heightened Def Con from 2.61059 ++++to 2.61059
Heightened Def Con from 2.61059 to 2.61059
Heightened Def Con from 3.17159 to 3.17159
Heightened Def Con from 3.17159 to 3.17159
Heightened Def Con from 3.17159 to 3.17159
Heightened Def Con from 3.17159 ++++++++++++to 3.17159
Heightened Def Con from 3.17159 +++to 3.17159
Heightened Def Con from 3.17159 +++++++++++++to 3.17159
Heightened Def Con from 3.17159 to 3.17159
Heightened Def Con from 3.19159 +to 3.19159
Heightened Def Con from 3.19159 ++to 3.19159
Heightened Def Con from 3.19159 ++++to 3.19159
Heightened Def Con from 3.19159 +to 3.19159
Heightened Def Con from 3.19159 ++++++++++to 3.19159
Heightened Def Con from 3.19159 ++++++++++to 3.19159
Heightened Def Con from 3.19159 to 3.19159
Heightened Def Con from 3.19159 +++++++++++++to 3.19159
Heightened Def Con from 3.19159 ++++++to 3.19159
Heightened Def Con from 3.19159 +++++++to 3.19159
Heightened Def Con from 3.19159 ++++to 3.19159
Heightened Def Con from 3.19159 ++++++++to 3.19159
Heightened Def Con from 3.19159 +++++++++++to 3.19159
Heightened Def Con from 3.19159 +++++++++++to 3.19159
Heightened Def Con from 3.19159 ++++++++++to 3.19159
Heightened Def Con from 3.19159 +++++++++++++to 3.19159
Heightened Def Con from 3.19159 +++++++++++to 3.19159
Heightened Def Con from 3.19159 to 3.19159
Heightened Def Con from 3.19159 +++to 3.19159
Heightened Def Con from 3.19159 +++to 3.19159
Heightened Def Con from 3.19159 +++to 3.19159
Heightened Def Con from 3.19159 +++++to 3.19159
Heightened Def Con from 3.19159 to 3.19159
Heightened Def Con from 3.19159 to 3.19159
Heightened Def Con from 3.19159 +to 3.19159
Heightened Def Con from 3.19159 +to 3.19159
Heightened Def Con from 3.19159 +to 3.19159
Heightened Def Con from 3.28459 +to 3.28459
Heightened Def Con from 3.28459 to 3.28459
Heightened Def Con from 3.28459 +++++++++++++to 3.28459
Heightened Def Con from 3.28459 +to 3.28459
Heightened Def Con from 3.28459 ++to 3.28459
Heightened Def Con from 3.30959 +++++to 3.30959
Heightened Def Con from 3.30959 ++++++++++++to 3.30959
Heightened Def Con from 3.30959 to 3.30959
Heightened Def Con from 3.30959 +++++++++++to 3.30959
Heightened Def Con from 3.30959 ++++++++++++to 3.30959
Heightened Def Con from 3.30959 to 3.30959
Heightened Def Con from 3.30959 ++++to 3.30959
Heightened Def Con from 3.30959 to 3.30959
Heightened Def Con from 3.30959 +++++++to 3.30959
Heightened Def Con from 3.30959 to 3.30959
Heightened Def Con from 3.30959 to 3.30959
Heightened Def Con from 3.66159 to 3.66159
Heightened Def Con from 3.66159 +to 3.66159
Heightened Def Con from 3.66159 to 3.66159
Heightened Def Con from 3.66159 +++++++to 3.66159
Heightened Def Con from 3.66159 +++++to 3.66159
Heightened Def Con from 3.66159 +++++++++++to 3.66159
Heightened Def Con from 3.66159 ++++++++++++to 3.66159
Heightened Def Con from 3.66159 +to 3.66159
Heightened Def Con from 3.66159 ++++++++++++to 3.66159
Heightened Def Con from 3.66159 +++++++++++++to 3.66159
Heightened Def Con from 3.66159 ++++to 3.66159
Heightened Def Con from 3.66159 to 3.66159
Heightened Def Con from 3.66159 to 3.66159
Heightened Def Con from 3.66159 ++++to 3.66159
Heightened Def Con from 3.66159 ++++to 3.66159
Heightened Def Con from 3.66159 +to 3.66159
Heightened Def Con from 3.66159 to 3.66159
Heightened Def Con from 3.66159 +++++to 3.66159
Heightened Def Con from 3.66159 +to 3.66159
Heightened Def Con from 3.66159 to 3.66159
Heightened Def Con from 3.66159 +++to 3.66159
Heightened Def Con from 3.66159 ++++++++++to 3.66159
Heightened Def Con from 3.66159 to 3.66159
Heightened Def Con from 3.66159 to 3.66159
Heightened Def Con from 4.36059 +to 4.36059
Heightened Def Con from 4.36059 ++to 4.36059
Heightened Def Con from 4.36059 ++++++++++++to 4.36059
Heightened Def Con from 4.36059 ++++++to 4.36059
Heightened Def Con from 4.36059 +to 4.36059
Heightened Def Con from 4.36059 to 4.36059
Heightened Def Con from 4.36059 to 4.36059
Heightened Def Con from 4.36059 to 4.36059
Heightened Def Con from 4.36059 to 4.36059
Heightened Def Con from 4.42759 to 4.42759
Heightened Def Con from 4.42759 +to 4.42759
Heightened Def Con from 4.42759 ++++++to 4.42759
Heightened Def Con from 4.42759 +to 4.42759
Heightened Def Con from 4.42759 ++to 4.42759
Heightened Def Con from 4.42759 ++++to 4.42759
Heightened Def Con from 4.42759 +to 4.42759
Heightened Def Con from 4.42759 +++++++++++to 4.42759
Heightened Def Con from 4.42759 ++to 4.42759
Heightened Def Con from 4.42759 ++++++++to 4.42759
Heightened Def Con from 4.42759 +++++++++to 4.42759
Heightened Def Con from 4.42759 +++++++++to 4.42759
Heightened Def Con from 4.42759 ++++++++to 4.42759
Heightened Def Con from 4.42759 ++++++++++++to 4.42759
Heightened Def Con from 4.42759 +++++++++++to 4.42759
Heightened Def Con from 4.42759 ++++++to 4.42759
Heightened Def Con from 4.42759 +++++++++++++to 4.42759
Heightened Def Con from 4.42759 +++++++++to 4.42759
Heightened Def Con from 4.42759 +to 4.42759
Heightened Def Con from 4.42759 +to 4.42759
Heightened Def Con from 4.42759 +to 4.42759
Heightened Def Con from 4.42759 ++++to 4.42759
Heightened Def Con from 4.42759 +to 4.42759
Heightened Def Con from 4.42759 ++++to 4.42759
Heightened Def Con from 4.50059 to 4.50059
Heightened Def Con from 4.50059 +to 4.50059
Heightened Def Con from 4.50059 +to 4.50059
Heightened Def Con from 4.50059 to 4.50059
Heightened Def Con from 4.50059 to 4.50059
Heightened Def Con from 4.50059 +to 4.50059
Heightened Def Con from 4.50059 +++++++++to 4.50059
Heightened Def Con from 4.50059 +to 4.50059
Heightened Def Con from 4.50059 to 4.50059
Heightened Def Con from 4.50059 +++to 4.50059
Heightened Def Con from 4.50059 +++++++++++to 4.50059
Heightened Def Con from 4.50059 ++++++++++to 4.50059
Heightened Def Con from 4.50059 to 4.50059
Heightened Def Con from 4.50059 ++++++++++++to 4.50059
Heightened Def Con from 4.50059 to 4.50059
Heightened Def Con from 4.50059 +++++++++++to 4.50059
Heightened Def Con from 4.50059 ++++++to 4.50059
Heightened Def Con from 4.50059 ++++++++++++to 4.50059
Heightened Def Con from 4.50059 ++++++++++++++to 4.50059
Heightened Def Con from 4.50059 ++to 4.50059
Heightened Def Con from 4.50059 +++++to 4.50059
Heightened Def Con from 4.50059 to 4.50059
Heightened Def Con from 4.50059 to 4.50059
Heightened Def Con from 4.50059 to 4.50059
Heightened Def Con from 4.50059 +++++to 4.50059
Heightened Def Con from 4.50059 to 4.50059
Heightened Def Con from 4.63659 +to 4.63659
Heightened Def Con from 4.63659 ++++to 4.63659
Heightened Def Con from 4.63659 ++++++++to 4.63659
Heightened Def Con from 4.63659 +++++to 4.63659
Heightened Def Con from 4.63659 +++++++++++to 4.63659
Heightened Def Con from 4.63659 ++++to 4.63659
Heightened Def Con from 4.63659 +to 4.63659
Heightened Def Con from 4.63659 to 4.63659
Heightened Def Con from 4.63659 +to 4.63659
Heightened Def Con from 4.63659 to 4.63659
Heightened Def Con from 5.68259 ++to 5.68259
Heightened Def Con from 5.68259 +to 5.68259
Heightened Def Con from 5.68259 ++++++to 5.68259
Heightened Def Con from 5.68259 to 5.68259
Heightened Def Con from 5.68259 +++++++++++to 5.68259
Heightened Def Con from 5.68259 ++to 5.68259
Heightened Def Con from 5.68259 ++to 5.68259
Heightened Def Con from 5.68259 +++++++to 5.68259
Heightened Def Con from 5.68259 +to 5.68259
Heightened Def Con from 5.68259 ++++to 5.68259
Heightened Def Con from 6.06659 +to 6.06659
Heightened Def Con from 6.06659 ++to 6.06659
Heightened Def Con from 6.06659 +to 6.06659
Heightened Def Con from 6.06659 +++++to 6.06659
Heightened Def Con from 6.06659 ++++++to 6.06659
Heightened Def Con from 6.06659 +to 6.06659
Heightened Def Con from 6.06659 ++++to 6.06659
Heightened Def Con from 6.06659 +to 6.06659
Heightened Def Con from 6.06659 to 6.06659
Heightened Def Con from 6.06659 +++++++++++to 6.06659
Heightened Def Con from 6.06659 ++++to 6.06659
Heightened Def Con from 6.06659 +to 6.06659
Heightened Def Con from 6.06659 +++to 6.06659
Heightened Def Con from 6.06659 ++to 6.06659
Heightened Def Con from 6.06659 ++to 6.06659
Heightened Def Con from 6.06659 +to 6.06659
Heightened Def Con from 6.65959 +++++to 6.65959
Heightened Def Con from 7.04759 +to 7.04759
Heightened Def Con from 7.04759 to 7.04759
Heightened Def Con from 7.04759 +to 7.04759
Heightened Def Con from 7.04759 +++to 7.04759
Heightened Def Con from 7.04759 to 7.04759
Heightened Def Con from 7.04759 ++++++to 7.04759
Heightened Def Con from 7.04759 +to 7.04759
Heightened Def Con from 7.04759 ++++++to 7.04759
Heightened Def Con from 7.04759 ++++++++++++to 7.04759
Heightened Def Con from 7.04759 ++to 7.04759
Heightened Def Con from 7.04759 to 7.04759
Heightened Def Con from 7.04759 to 7.04759
Heightened Def Con from 7.04759 ++++to 7.04759
Heightened Def Con from 7.04759 to 7.04759
Heightened Def Con from 7.39959 +to 7.39959
Heightened Def Con from 7.39959 ++to 7.39959
Heightened Def Con from 7.39959 to 7.39959
Heightened Def Con from 7.39959 ++to 7.39959
Heightened Def Con from 7.39959 to 7.39959
Heightened Def Con from 7.39959 ++to 7.39959
Heightened Def Con from 7.39959 ++to 7.39959
Heightened Def Con from 7.39959 +++++++to 7.39959
Heightened Def Con from 7.39959 ++++++++++++to 7.39959
Heightened Def Con from 7.39959 ++to 7.39959
Heightened Def Con from 7.39959 to 7.39959
Heightened Def Con from 7.39959 ++++to 7.39959
Heightened Def Con from 7.39959 to 7.39959
Heightened Def Con from 7.39959 ++++++++to 7.39959
Heightened Def Con from 7.39959 ++++to 7.39959
Heightened Def Con from 7.39959 ++to 7.39959
Heightened Def Con from 7.39959 +++to 7.39959
Heightened Def Con from 7.39959 to 7.39959
Heightened Def Con from 7.39959 to 7.39959
Heightened Def Con from 7.39959 +to 7.39959
Heightened Def Con from 7.39959 +++to 7.39959
Heightened Def Con from 7.39959 +to 7.39959
Heightened Def Con from 7.51859 to 7.51859
Heightened Def Con from 7.51859 +to 7.51859
Heightened Def Con from 7.51859 +to 7.51859
Heightened Def Con from 7.51859 ++to 7.51859
Heightened Def Con from 7.51859 +++to 7.51859
Heightened Def Con from 7.51859 +to 7.51859
Heightened Def Con from 7.51859 +++++to 7.51859
Heightened Def Con from 7.51859 to 7.51859
Heightened Def Con from 7.51859 +to 7.51859
Heightened Def Con from 7.51859 +++++to 7.51859
Heightened Def Con from 7.51859 ++++++to 7.51859
Heightened Def Con from 7.51859 ++++++++to 7.51859
Heightened Def Con from 7.51859 +++++++++++to 7.51859
Heightened Def Con from 7.51859 +++++++++++to 7.51859
Heightened Def Con from 7.51859 ++++++++to 7.51859
Heightened Def Con from 7.51859 +++++++++++++to 7.51859
Heightened Def Con from 7.51859 +++++++++++++to 7.51859
Heightened Def Con from 7.51859 ++++++++to 7.51859
Heightened Def Con from 7.51859 +++to 7.51859
Heightened Def Con from 7.51859 +++++++++++to 7.51859
Heightened Def Con from 7.51859 +++++++++++++to 7.51859
Heightened Def Con from 7.51859 ++++++++++++to 7.51859
Heightened Def Con from 7.51859 to 7.51859
Heightened Def Con from 7.51859 ++to 7.51859
Heightened Def Con from 7.51859 +++++to 7.51859
Heightened Def Con from 7.51859 ++to 7.51859
Heightened Def Con from 7.51859 +++++++++++++to 7.51859
Heightened Def Con from 7.51859 +++++++to 7.51859
Heightened Def Con from 7.51859 ++++to 7.51859
Heightened Def Con from 7.51859 ++++to 7.51859
Heightened Def Con from 7.51859 +++to 7.51859
Heightened Def Con from 7.51859 +++++++++++to 7.51859
Heightened Def Con from 7.51859 +to 7.51859
Heightened Def Con from 7.51859 +++++to 7.51859
Heightened Def Con from 7.51859 +to 7.51859
Heightened Def Con from 7.51859 to 7.51859
Heightened Def Con from 7.51859 to 7.51859
Heightened Def Con from 7.51859 +++to 7.51859
Heightened Def Con from 7.51859 +++to 7.51859
Heightened Def Con from 7.51859 ++++to 7.51859
Heightened Def Con from 7.51859 ++to 7.51859
Heightened Def Con from 7.51859 to 7.51859
Heightened Def Con from 7.51859 to 7.51859
Heightened Def Con from 8.03559 to 8.03559
Heightened Def Con from 8.03559 +++++++++++to 8.03559
Heightened Def Con from 8.03559 +to 8.03559
Heightened Def Con from 8.03559 +++++++++to 8.03559
Heightened Def Con from 8.03559 +++++++++++++to 8.03559
Heightened Def Con from 8.03559 to 8.03559
Heightened Def Con from 8.03559 +++++to 8.03559
Heightened Def Con from 8.03559 to 8.03559
Heightened Def Con from 8.11959 ++++to 8.11959
Heightened Def Con from 8.11959 to 8.11959
Heightened Def Con from 8.11959 ++to 8.11959
Heightened Def Con from 8.11959 ++++++to 8.11959
Heightened Def Con from 8.11959 +++++to 8.11959
Heightened Def Con from 8.11959 ++++to 8.11959
Heightened Def Con from 8.11959 +++++++++++++to 8.11959
Heightened Def Con from 8.11959 +++++to 8.11959
Heightened Def Con from 8.11959 ++++++to 8.11959
Heightened Def Con from 8.11959 to 8.11959
Heightened Def Con from 8.11959 ++to 8.11959
Heightened Def Con from 8.11959 to 8.11959
Heightened Def Con from 8.19159 to 8.19159
Heightened Def Con from 8.19159 +to 8.19159
Heightened Def Con from 8.19159 to 8.19159
Heightened Def Con from 8.19159 ++to 8.19159
Heightened Def Con from 8.19159 +to 8.19159
Heightened Def Con from 8.19159 +++++++++++to 8.19159
Heightened Def Con from 8.19159 +++++++++++++to 8.19159
Heightened Def Con from 8.19159 ++++++++++to 8.19159
Heightened Def Con from 8.19159 +++to 8.19159
Heightened Def Con from 8.19159 +++++++++++to 8.19159
Heightened Def Con from 8.19159 ++to 8.19159
Heightened Def Con from 8.19159 ++to 8.19159
Heightened Def Con from 8.19159 to 8.19159
Heightened Def Con from 8.19159 to 8.19159
Heightened Def Con from 8.19159 to 8.19159
Heightened Def Con from 8.19159 ++to 8.19159
Heightened Def Con from 8.19159 to 8.19159
Heightened Def Con from 8.24259 +to 8.24259
Heightened Def Con from 8.24259 ++++++++++to 8.24259
Heightened Def Con from 8.46259 to 8.46259
Heightened Def Con from 8.46259 ++++++to 8.46259
Heightened Def Con from 8.46259 ++++++++to 8.46259
Heightened Def Con from 8.46259 +to 8.46259
Heightened Def Con from 8.46259 ++to 8.46259
Heightened Def Con from 8.46259 ++++++++++++to 8.46259
Heightened Def Con from 8.67559 to 8.67559
Heightened Def Con from 8.67559 to 8.67559
Heightened Def Con from 8.67559 +++++++++++to 8.67559
Heightened Def Con from 8.67559 to 8.67559
Heightened Def Con from 8.67559 +to 8.67559
Heightened Def Con from 8.67559 to 8.67559
Heightened Def Con from 8.67559 to 8.67559
Heightened Def Con from 8.69159 to 8.69159
Heightened Def Con from 8.69159 +to 8.69159
Heightened Def Con from 9.20059 ++++to 9.20059
Heightened Def Con from 9.20059 to 9.20059
Heightened Def Con from 9.20059 to 9.20059
Heightened Def Con from 9.20059 +to 9.20059
Heightened Def Con from 9.20059 +++++++++++to 9.20059
Heightened Def Con from 9.20059 +to 9.20059
Heightened Def Con from 9.20059 ++to 9.20059
Heightened Def Con from 9.20059 +++to 9.20059
Heightened Def Con from 9.20059 ++to 9.20059
Heightened Def Con from 9.20059 ++to 9.20059
Heightened Def Con from 9.28259 to 9.28259
Heightened Def Con from 9.28259 +to 9.28259
Heightened Def Con from 9.28259 +to 9.28259
Heightened Def Con from 9.28259 +to 9.28259
Heightened Def Con from 9.28259 to 9.28259
Heightened Def Con from 9.28259 to 9.28259
Heightened Def Con from 9.28259 +++to 9.28259
Heightened Def Con from 9.28259 +++++++to 9.28259
Heightened Def Con from 9.28259 ++++to 9.28259
Heightened Def Con from 9.28259 +++to 9.28259
Heightened Def Con from 9.28259 ++++to 9.28259
Heightened Def Con from 9.28259 ++++++++++++to 9.28259
Heightened Def Con from 9.28259 ++++++++to 9.28259
Heightened Def Con from 9.28259 +++++to 9.28259
Heightened Def Con from 9.28259 ++++++++++++++to 9.28259
Heightened Def Con from 9.28259 ++to 9.28259
Heightened Def Con from 9.28259 +++++++++++to 9.28259
Heightened Def Con from 9.28259 to 9.28259
Heightened Def Con from 9.28259 to 9.28259
Heightened Def Con from 9.28259 ++to 9.28259
Heightened Def Con from 9.28259 to 9.28259

Date: Tue Feb 04 12:32:56 2020
Total elapsed time: 762.775 seconds.

tnom = 27
temp = 27
method = modified trap
totiter = 531278042
traniter = 531278035
tranpoints = 157381182
accept = 111205157
rejected = 46256175
matrix size = 10
fillins = 1
solver = Normal
Matrix Compiler1:      27 opcodes  0.1/[0.0]/0.1
Matrix Compiler2: 754 bytes object code size  0.1/0.1/[0.1]

