Circuit: * R:\repos\auxpis-bps\ltspice\schematics\proto_1.asc

Limiting rise time of source v2 to 2.5e-005
Limiting fall time of source v2 to 2.5e-005
Direct Newton iteration for .op point succeeded.

Date: Wed Feb 05 12:05:57 2020
Total elapsed time: 0.659 seconds.

tnom = 27
temp = 27
method = modified trap
totiter = 381641
traniter = 381620
tranpoints = 109537
accept = 82790
rejected = 26747
matrix size = 9
fillins = 0
solver = Normal
Matrix Compiler1: 430 bytes object code size  0.1/0.1/[0.1]
Matrix Compiler2: off  [0.1]/0.1/0.1

